units(length='cm', time='s', quantity='mol', act_energy='kcal/mol')

ideal_gas(name='gas',
          elements="H D T C Ci O Oi N Ne Ar He Si S F Cl Br I X",
          species="""Ar          Ne          N2          CH4(2)
                     O2(3)       CO2(4)      H2O(5)      H2(6)
                     CO(7)       C2H6(8)     CH2O(9)     CH3(10)
                     C3H8(11)    H(12)       C2H5(13)    CH3OH(14)
                     HCO(15)     CH3CHO(16)  OH(17)      C2H4(18)
                     CH3OO(20)   C2H4(52)""",
          reactions='gas-*',
          transport='Mix',
          initial_state=state(temperature=300.0, pressure=OneAtm))

ideal_interface(name='surface1',
                elements="H D T C Ci O Oi N Ne Ar He Si S F Cl Br I X",
                species="""X(1)        HX(21)      CO2X(22)    COX(23)
                          CH4X(24)    OX(25)      CH2X(26)    CH3X(27)
                          CHX(28)     CX(29)      H2X(30)     OHX(31)
                          H2OX(32)    CHOX(33)    CHOX(231)   C2H3X(241)""",
                site_density=2.483e-09,
                phases="gas",
          reactions='surface1-*',
                initial_state=state(temperature=300.0, pressure=OneAtm))

#-------------------------------------------------------------------------------
# Element data
#-------------------------------------------------------------------------------

element(symbol='Ci', atomic_mass=13.003)
element(symbol='D', atomic_mass=2.014)
element(symbol='Oi', atomic_mass=17.999)
element(symbol='T', atomic_mass=3.016)
element(symbol='X', atomic_mass=195.083)
#-------------------------------------------------------------------------------
# Species data
#-------------------------------------------------------------------------------

species(name='Ar',
        atoms='Ar:1',
        thermo=(NASA([200.00, 1000.00],
                     [ 2.50000000E+00,  0.00000000E+00,  0.00000000E+00,
                       0.00000000E+00,  0.00000000E+00, -7.45375000E+02,
                       4.37967000E+00]),
                NASA([1000.00, 6000.00],
                     [ 2.50000000E+00,  0.00000000E+00,  0.00000000E+00,
                       0.00000000E+00,  0.00000000E+00, -7.45375000E+02,
                       4.37967000E+00])),
        transport=gas_transport(geom='atom',
                                diam=3.33,
                                well_depth=136.501))

species(name='Ne',
        atoms='Ne:1',
        thermo=(NASA([200.00, 1000.00],
                     [ 2.50000000E+00,  0.00000000E+00,  0.00000000E+00,
                       0.00000000E+00,  0.00000000E+00, -7.45375000E+02,
                       3.35532000E+00]),
                NASA([1000.00, 6000.00],
                     [ 2.50000000E+00,  0.00000000E+00,  0.00000000E+00,
                       0.00000000E+00,  0.00000000E+00, -7.45375000E+02,
                       3.35532000E+00])),
        transport=gas_transport(geom='atom',
                                diam=3.758,
                                well_depth=148.6))

species(name='N2',
        atoms='N:2',
        thermo=(NASA([200.00, 1000.00],
                     [ 3.53101000E+00, -1.23661000E-04, -5.02999000E-07,
                       2.43531000E-09, -1.40881000E-12, -1.04698000E+03,
                       2.96747000E+00]),
                NASA([1000.00, 6000.00],
                     [ 2.95258000E+00,  1.39690000E-03, -4.92632000E-07,
                       7.86010000E-11, -4.60755000E-15, -9.23949000E+02,
                       5.87189000E+00])),
        transport=gas_transport(geom='linear',
                                diam=3.621,
                                well_depth=97.53,
                                polar=1.76,
                                rot_relax=4.0))

species(name='CH4(2)',
        atoms='C:1 H:4',
        thermo=(NASA([100.00, 1084.15],
                     [ 4.20540072E+00, -5.35540640E-03,  2.51117636E-05,
                      -2.13755910E-08,  5.97496145E-12, -1.01619427E+04,
                      -9.21226951E-01]),
                NASA([1084.15, 5000.00],
                     [ 9.08349401E-01,  1.14539479E-02, -4.57166053E-06,
                       8.29173612E-10, -5.66300105E-14, -9.72001110E+03,
                       1.39926204E+01])),
        transport=gas_transport(geom='nonlinear',
                                diam=3.746,
                                well_depth=141.4,
                                polar=2.6,
                                rot_relax=13.0))

species(name='O2(3)',
        atoms='O:2',
        thermo=(NASA([100.00, 1074.56],
                     [ 3.53732118E+00, -1.21570207E-03,  5.31615377E-06,
                      -4.89440387E-09,  1.45843816E-12, -1.03858843E+03,
                       4.68368631E+00]),
                NASA([1074.56, 5000.00],
                     [ 3.15382772E+00,  1.67803228E-03, -7.69967779E-07,
                       1.51273960E-10, -1.08781182E-14, -1.04082030E+03,
                       6.16751919E+00])),
        transport=gas_transport(geom='linear',
                                diam=3.467,
                                well_depth=106.7))

species(name='CO2(4)',
        atoms='C:1 O:2',
        thermo=(NASA([100.00, 978.22],
                     [ 3.28083821E+00,  2.50193291E-03,  8.08164577E-06,
                      -1.20506695E-08,  4.66526645E-12, -4.84008301E+04,
                       6.00083693E+00]),
                NASA([978.22, 5000.00],
                     [ 4.67429780E+00,  2.60958835E-03, -9.85659769E-07,
                       1.95706729E-10, -1.49830320E-14, -4.89512267E+04,
                      -2.11090702E+00])),
        transport=gas_transport(geom='linear',
                                diam=3.941,
                                well_depth=195.201))

species(name='H2O(5)',
        atoms='H:2 O:1',
        thermo=(NASA([100.00, 1130.25],
                     [ 4.05763720E+00, -7.87951343E-04,  2.90882564E-06,
                      -1.47524910E-09,  2.12866372E-13, -3.02815867E+04,
                      -3.11369025E-01]),
                NASA([1130.25, 5000.00],
                     [ 2.84324104E+00,  2.75110073E-03, -7.81040007E-07,
                       1.07245603E-10, -5.79408217E-15, -2.99586086E+04,
                       5.91047337E+00])),
        transport=gas_transport(geom='nonlinear',
                                diam=2.641,
                                well_depth=809.102,
                                polar=1.76,
                                rot_relax=4.0))

species(name='H2(6)',
        atoms='H:2',
        thermo=(NASA([100.00, 1959.08],
                     [ 3.43536411E+00,  2.12710383E-04, -2.78625110E-07,
                       3.40267219E-10, -7.76032129E-14, -1.03135984E+03,
                      -3.90841731E+00]),
                NASA([1959.08, 5000.00],
                     [ 2.78816619E+00,  5.87640475E-04,  1.59010635E-07,
                      -5.52739465E-11,  4.34311304E-15, -5.96144481E+02,
                       1.12730527E-01])),
        transport=gas_transport(geom='linear',
                                diam=2.833,
                                well_depth=59.7))

species(name='CO(7)',
        atoms='C:1 O:1',
        thermo=(NASA([100.00, 1571.64],
                     [ 3.56837982E+00, -8.52124063E-04,  2.48917390E-06,
                      -1.56330672E-09,  3.13594213E-13, -1.42842549E+04,
                       3.57912239E+00]),
                NASA([1571.64, 5000.00],
                     [ 2.91306987E+00,  1.64657389E-03, -6.88612820E-07,
                       1.21036930E-10, -7.84014743E-15, -1.41808862E+04,
                       6.71043900E+00])),
        transport=gas_transport(geom='linear',
                                diam=3.69,
                                well_depth=91.7,
                                polar=1.76,
                                rot_relax=4.0))

species(name='C2H6(8)',
        atoms='C:2 H:6',
        thermo=(NASA([100.00, 1012.42],
                     [ 3.72239308E+00,  1.65083640E-03,  3.44175601E-05,
                      -3.76858321E-08,  1.24450696E-11, -1.15575902E+04,
                       4.68247939E+00]),
                NASA([1012.42, 5000.00],
                     [ 2.82848184E+00,  1.73040581E-02, -6.73334315E-06,
                       1.23742041E-09, -8.65676548E-14, -1.19978077E+04,
                       5.93812118E+00])),
        transport=gas_transport(geom='nonlinear',
                                diam=4.302,
                                well_depth=252.301,
                                rot_relax=1.5))

species(name='CH2O(9)',
        atoms='C:1 H:2 O:1',
        thermo=(NASA([100.00, 1070.44],
                     [ 4.12927829E+00, -4.08401633E-03,  2.03229448E-05,
                      -1.83524377E-08,  5.37976060E-12, -1.44294640E+04,
                       3.22418365E+00]),
                NASA([1070.44, 5000.00],
                     [ 2.21172293E+00,  7.94265924E-03, -3.34193191E-06,
                       6.28471724E-10, -4.40431711E-14, -1.42974450E+04,
                       1.13049069E+01])),
        transport=gas_transport(geom='nonlinear',
                                diam=3.59,
                                well_depth=498.002,
                                rot_relax=2.0))

species(name='CH3(10)',
        atoms='C:1 H:3',
        thermo=(NASA([100.00, 697.63],
                     [ 3.96043178E+00,  5.92930195E-04,  8.78578951E-06,
                      -9.88035524E-09,  3.63236942E-12,  1.64218817E+04,
                       3.39862787E-01]),
                NASA([697.63, 5000.00],
                     [ 3.09511262E+00,  5.55429714E-03, -1.88158748E-06,
                       3.13334732E-10, -2.05194931E-14,  1.65426190E+04,
                       4.20297474E+00])),
        transport=gas_transport(geom='nonlinear',
                                diam=3.8,
                                well_depth=144.001))

species(name='C3H8(11)',
        atoms='C:3 H:8',
        thermo=(NASA([100.00, 989.99],
                     [ 3.06337235E+00,  1.29213276E-02,  3.47037401E-05,
                      -4.70952219E-08,  1.71386763E-11, -1.43905793E+04,
                       1.07835211E+01]),
                NASA([989.99, 5000.00],
                     [ 5.60435845E+00,  2.19529500E-02, -8.22084738E-06,
                       1.50104968E-09, -1.05636167E-13, -1.58393862E+04,
                      -6.22599672E+00])),
        transport=gas_transport(geom='nonlinear',
                                diam=4.982,
                                well_depth=266.801,
                                rot_relax=1.0))

species(name='H(12)',
        atoms='H:1',
        thermo=(NASA([100.00, 4383.16],
                     [ 2.50000000E+00, -2.38914167E-13,  3.12709494E-16,
                      -1.33367320E-19,  1.74989654E-23,  2.54742178E+04,
                      -4.44972897E-01]),
                NASA([4383.16, 5000.00],
                     [ 2.50003447E+00, -3.04996987E-08,  1.01101187E-11,
                      -1.48796738E-15,  8.20356170E-20,  2.54741866E+04,
                      -4.45191184E-01])),
        transport=gas_transport(geom='atom',
                                diam=2.05,
                                well_depth=145.0))

species(name='C2H5(13)',
        atoms='C:2 H:5',
        thermo=(NASA([100.00, 1006.87],
                     [ 3.68745380E+00,  3.06903510E-03,  2.55868228E-05,
                      -2.94070210E-08,  9.94049079E-12,  1.31153653E+04,
                       6.96689006E+00]),
                NASA([1006.87, 5000.00],
                     [ 3.53785893E+00,  1.37310809E-02, -5.29559886E-06,
                       9.71471661E-10, -6.80280220E-14,  1.26351584E+04,
                       5.15538530E+00])),
        transport=gas_transport(geom='nonlinear',
                                diam=4.302,
                                well_depth=252.301,
                                rot_relax=1.5))

species(name='CH3OH(14)',
        atoms='C:1 H:4 O:1',
        thermo=(NASA([100.00, 1035.75],
                     [ 3.84006221E+00,  1.38241909E-03,  1.91667221E-05,
                      -2.01568699E-08,  6.39102422E-12, -2.56083087E+04,
                       5.90978110E+00]),
                NASA([1035.75, 5000.00],
                     [ 2.79184262E+00,  1.15827858E-02, -4.51551962E-06,
                       8.21206786E-10, -5.67063316E-14, -2.57211672E+04,
                       9.41061788E+00])),
        transport=gas_transport(geom='nonlinear',
                                diam=3.626,
                                well_depth=481.802,
                                rot_relax=1.0))

species(name='HCO(15)',
        atoms='C:1 H:1 O:1',
        thermo=(NASA([100.00, 1112.10],
                     [ 4.05936498E+00, -1.73847479E-03,  9.14984441E-06,
                      -8.01135632E-09,  2.25738876E-12,  3.84377613E+03,
                       3.32449376E+00]),
                NASA([1112.10, 5000.00],
                     [ 3.05135606E+00,  4.11707384E-03, -1.75586963E-06,
                       3.29304046E-10, -2.29175030E-14,  3.93008180E+03,
                       7.67467582E+00])),
        transport=gas_transport(geom='nonlinear',
                                diam=3.59,
                                well_depth=498.002))

species(name='CH3CHO(16)',
        atoms='C:2 H:4 O:1',
        thermo=(NASA([100.00, 1028.81],
                     [ 3.57992397E+00,  5.18983474E-03,  2.26897496E-05,
                      -2.73742644E-08,  9.28479682E-12, -2.13697374E+04,
                       8.96971567E+00]),
                NASA([1028.81, 5000.00],
                     [ 4.08563906E+00,  1.39061194E-02, -5.59370172E-06,
                       1.04609264E-09, -7.38738518E-14, -2.20391345E+04,
                       3.76801423E+00])),
        transport=gas_transport(geom='nonlinear',
                                diam=3.97,
                                well_depth=436.001,
                                rot_relax=2.0))

species(name='OH(17)',
        atoms='H:1 O:1',
        thermo=(NASA([100.00, 1145.76],
                     [ 3.51456841E+00,  2.92731942E-05, -5.32149835E-07,
                       1.01947431E-09, -3.85939061E-13,  3.41425418E+03,
                       2.10434749E+00]),
                NASA([1145.76, 5000.00],
                     [ 3.07193709E+00,  6.04020086E-04, -1.39807303E-08,
                      -2.13440498E-11,  2.48061111E-15,  3.57938799E+03,
                       4.57801556E+00])),
        transport=gas_transport(geom='linear',
                                diam=2.75,
                                well_depth=80.0))

species(name='C2H4(18)',
        atoms='C:2 H:4',
        thermo=(NASA([100.00, 979.37],
                     [ 3.97469045E+00, -4.75813325E-03,  4.16772624E-05,
                      -4.51377676E-08,  1.54218287E-11,  4.91540855E+03,
                       3.62439976E+00]),
                NASA([979.37, 5000.00],
                     [ 3.55670229E+00,  1.10625819E-02, -4.17009559E-06,
                       7.85564219E-10, -5.70042086E-14,  4.32042473E+03,
                       2.17665377E+00])),
        transport=gas_transport(geom='nonlinear',
                                diam=3.971,
                                well_depth=280.801,
                                rot_relax=1.5))

species(name='CH3OO(20)',
        atoms='C:1 H:3 O:2',
        thermo=(NASA([100.00, 1031.34],
                     [ 3.58601552E+00,  6.15340415E-03,  1.33272153E-05,
                      -1.76585185E-08,  6.13226243E-12,  2.48233263E+02,
                       9.74093525E+00]),
                NASA([1031.34, 5000.00],
                     [ 4.35019028E+00,  1.07183821E-02, -4.26218198E-06,
                       7.89585653E-10, -5.53852364E-14, -3.09796223E+02,
                       4.08946593E+00])),
        transport=gas_transport(geom='nonlinear',
                                diam=3.69,
                                well_depth=417.0,
                                dipole=1.7,
                                rot_relax=2.0))

species(name='C2H4(52)',
        atoms='C:2 H:4',
        thermo=(NASA([100.00, 846.10],
                     [ 3.36869039E+00,  1.64232602E-02, -2.16504097E-05,
                       2.18228562E-08, -8.70185728E-12,  4.28682839E+04,
                       2.18539360E+01]),
                NASA([846.10, 5000.00],
                     [ 2.62345066E+00,  1.38429112E-02, -6.25540907E-06,
                       1.16703412E-09, -7.95359063E-14,  4.32128669E+04,
                       2.66157993E+01])),
        transport=gas_transport(geom='nonlinear',
                                diam=4.443,
                                well_depth=110.7))

species(name='X(1)',
        atoms='X:1',
        thermo=(NASA([298.00, 1000.00],
                     [ 0.00000000E+00,  0.00000000E+00,  0.00000000E+00,
                       0.00000000E+00,  0.00000000E+00,  0.00000000E+00,
                       0.00000000E+00]),
                NASA([1000.00, 3000.00],
                     [ 0.00000000E+00,  0.00000000E+00,  0.00000000E+00,
                       0.00000000E+00,  0.00000000E+00,  0.00000000E+00,
                       0.00000000E+00])))

species(name='HX(21)',
        atoms='H:1 X:1',
        thermo=(NASA([298.00, 1000.00],
                     [-1.96702988E+00,  1.67920714E-02, -2.50314139E-05,
                       1.80485455E-08, -5.11491197E-12, -3.21277026E+03,
                       7.68211257E+00]),
                NASA([1000.00, 2000.00],
                     [ 2.71968546E+00, -1.07696656E-03,  2.00193294E-06,
                      -1.12865983E-09,  2.11269165E-13, -4.24701712E+03,
                      -1.52793490E+01])))

species(name='CO2X(22)',
        atoms='C:1 O:2 X:1',
        thermo=(NASA([100.00, 953.58],
                     [ 3.09270665E+00,  5.29257511E-03,  8.99525075E-06,
                      -1.67139901E-08,  7.04956887E-12, -5.24627117E+04,
                      -4.06902635E+00]),
                NASA([953.58, 5000.00],
                     [ 5.99797425E+00,  2.27495290E-03, -6.81151398E-07,
                       1.34446413E-10, -1.11521352E-14, -5.34336778E+04,
                      -2.01330581E+01])))

species(name='COX(23)',
        atoms='C:1 O:1 X:1',
        thermo=(NASA([298.00, 1000.00],
                     [ 2.70112272E+00,  8.76650166E-03, -1.29512418E-05,
                       1.04194594E-08, -3.39700490E-12, -3.49476634E+04,
                      -1.28730512E+01]),
                NASA([1000.00, 2000.00],
                     [ 5.52820880E+00, -1.52631254E-03,  2.79791895E-06,
                      -1.54550129E-09,  2.84523223E-13, -3.56231280E+04,
                      -2.69156979E+01])))

species(name='CH4X(24)',
        atoms='C:1 H:4 X:1',
        thermo=(NASA([298.00, 1000.00],
                     [ 5.26247002E+00, -7.42703413E-03,  3.36472336E-05,
                      -3.29401150E-08,  1.10259250E-11, -1.16038320E+04,
                      -1.00920541E+01]),
                NASA([1000.00, 2000.00],
                     [ 9.54981008E+00, -1.03719404E-02,  1.83183536E-05,
                      -9.63332916E-09,  1.70558531E-12, -1.32717208E+04,
                      -3.45374475E+01])))

species(name='OX(25)',
        atoms='O:1 X:1',
        thermo=(NASA([298.00, 1000.00],
                     [ 1.79722382E-01,  1.25453156E-02, -2.29924588E-05,
                       1.94187177E-08, -6.22414099E-12, -1.73402246E+04,
                      -2.22409728E+00]),
                NASA([1000.00, 2000.00],
                     [ 2.92050897E+00, -2.70455589E-04,  5.15610634E-07,
                      -2.93911213E-10,  5.54030466E-14, -1.78369003E+04,
                      -1.50940536E+01])))

species(name='CH2X(26)',
        atoms='C:1 H:2 X:1',
        thermo=(NASA([298.00, 1000.00],
                     [-2.26602367E+00,  2.92517765E-02, -4.32728797E-05,
                       3.30655723E-08, -9.93242641E-12, -2.23619445E+02,
                       8.22751288E+00]),
                NASA([1000.00, 2000.00],
                     [ 6.82572636E+00, -5.17192506E-03,  9.19551938E-06,
                      -4.87101486E-09,  8.67713091E-13, -2.26886621E+03,
                      -3.64410753E+01])))

species(name='CH3X(27)',
        atoms='C:1 H:3 X:1',
        thermo=(NASA([298.00, 1000.00],
                     [ 5.80099877E-01,  1.66399977E-02, -1.39164870E-05,
                       6.70631582E-09, -1.31079175E-12, -6.31046932E+03,
                      -7.57148375E-01]),
                NASA([1000.00, 2000.00],
                     [ 8.67869881E+00, -7.84238420E-03,  1.38956076E-05,
                      -7.33600190E-09,  1.30321431E-12, -8.45079729E+03,
                      -4.20966823E+01])))

species(name='CHX(28)',
        atoms='C:1 H:1 X:1',
        thermo=(NASA([298.00, 1000.00],
                     [-3.00950779E+00,  3.02193341E-02, -4.99546294E-05,
                       3.99478464E-08, -1.23021593E-11, -3.13353859E+03,
                       1.12314464E+01]),
                NASA([1000.00, 2000.00],
                     [ 4.88482023E+00, -2.70846119E-03,  4.84648118E-06,
                      -2.58513645E-09,  4.63180319E-13, -4.75082800E+03,
                      -2.67870735E+01])))

species(name='CX(29)',
        atoms='C:1 X:1',
        thermo=(NASA([298.00, 1000.00],
                     [-1.73430697E+00,  1.89855471E-02, -3.23563661E-05,
                       2.59269890E-08, -7.99102104E-12,  6.36385922E+03,
                       6.25445028E+00]),
                NASA([1000.00, 2000.00],
                     [ 2.82193241E+00, -6.61177416E-04,  1.24180431E-06,
                      -7.03993893E-10,  1.32276605E-13,  5.46467816E+03,
                      -1.55251271E+01])))

species(name='H2X(30)',
        atoms='H:2 X:1',
        thermo=(NASA([298.00, 1000.00],
                     [ 3.78935111E+00,  1.10148021E-03, -2.31320100E-06,
                       2.11937826E-09, -6.31350224E-13, -1.86700333E+03,
                      -1.00616465E+01]),
                NASA([1000.00, 2000.00],
                     [ 4.06700165E+00, -5.01780079E-04,  6.70738856E-07,
                      -1.79170942E-10,  8.86886631E-15, -1.89107687E+03,
                      -1.12621699E+01])))

species(name='OHX(31)',
        atoms='H:1 O:1 X:1',
        thermo=(NASA([298.00, 1000.00],
                     [ 1.07348583E+00,  1.72652206E-02, -3.17712232E-05,
                       2.71536568E-08, -8.69449304E-12, -1.96002909E+04,
                      -5.65622336E+00]),
                NASA([1000.00, 2000.00],
                     [ 5.01870328E+00, -1.35424298E-03,  2.27686310E-06,
                      -1.09407298E-09,  1.79396487E-13, -2.02979842E+04,
                      -2.41159621E+01])))

species(name='H2OX(32)',
        atoms='H:2 O:1 X:1',
        thermo=(NASA([298.00, 1000.00],
                     [ 2.53777266E+00,  9.45372010E-03, -1.41325664E-05,
                       1.16730945E-08, -3.67657640E-12, -3.27590463E+04,
                      -5.36548561E+00]),
                NASA([1000.00, 2000.00],
                     [ 5.84789466E+00, -3.31526816E-03,  5.62018785E-06,
                      -2.75864893E-09,  4.61279066E-13, -3.34885608E+04,
                      -2.15622699E+01])))

species(name='CHOX(33)',
        atoms='C:1 H:1 O:1 X:1',
        thermo=(NASA([298.00, 1000.00],
                     [ 1.94156388E+00,  1.30882912E-02, -1.34260003E-05,
                       7.97044677E-09, -2.06719711E-12, -2.80413711E+04,
                      -5.97802577E+00]),
                NASA([1000.00, 2000.00],
                     [ 7.49136303E+00, -4.18949199E-03,  7.54544313E-06,
                      -4.07863095E-09,  7.38421146E-13, -2.94916141E+04,
                      -3.42076640E+01])))

species(name='CHOX(231)',
        atoms='C:1 H:1 O:1 X:1',
        thermo=(NASA([298.00, 1000.00],
                     [ 8.63437744E-01,  2.14806054E-02, -3.00009525E-05,
                       2.11729011E-08, -5.90923491E-12, -3.09990999E+04,
                      -5.10749731E+00]),
                NASA([1000.00, 2000.00],
                     [ 7.59479056E+00, -3.06847382E-03,  5.43592647E-06,
                      -2.86463560E-09,  5.09149225E-13, -3.25424988E+04,
                      -3.83674793E+01])))

species(name='C2H3X(241)',
        atoms='C:2 H:3 X:1',
        thermo=(NASA([298.00, 1000.00],
                     [ 1.57603104E-01,  2.34293413E-02, -1.86683661E-05,
                       7.29234370E-09, -8.79008671E-13, -1.12523534E+04,
                      -1.73582278E+00]),
                NASA([1000.00, 2000.00],
                     [ 1.13050336E+01, -9.40622931E-03,  1.67935678E-05,
                      -8.96901500E-09,  1.60855621E-12, -1.42348165E+04,
                      -5.88363790E+01])))

#-------------------------------------------------------------------------------
# Reaction data
#-------------------------------------------------------------------------------

# Reaction 1
three_body_reaction('H2(6) + M <=> H(12) + H(12) + M', [4.577000e+19, -1.4, 104.38],
                    efficiencies='Ar:0.0 CO(7):1.9 CO2(4):3.8 H2(6):2.5 H2O(5):12.0',
                    id='gas-1')

# Reaction 2
reaction('Ar + H2(6) <=> Ar + H(12) + H(12)', [5.840000e+18, -1.1, 104.38],
         id='gas-2')

# Reaction 3
reaction('OH(17) + H2(6) <=> H(12) + H2O(5)', [2.160000e+08, 1.51, 3.43],
         id='gas-3')

# Reaction 4
three_body_reaction('H2O(5) + M <=> H(12) + OH(17) + M', [6.064000e+27, -3.322, 120.79],
                    efficiencies='CO(7):1.9 CO2(4):3.8 H2(6):3.0 H2O(5):0.0 N2:2.0 O2(3):1.5',
                    id='gas-4')

# Reaction 5
reaction('H2O(5) + H2O(5) <=> H(12) + OH(17) + H2O(5)', [1.006000e+26, -2.44, 120.18],
         id='gas-5')

# Reaction 6
reaction('OH(17) + OH(17) <=> O2(3) + H2(6)', [2.000000e+11, 0.51, 50.5],
         id='gas-6')

# Reaction 7
reaction('H(12) + CH3(10) <=> CH4(2)', [1.930000e+14, 0.0, 0.27],
         id='gas-7')

# Reaction 8
reaction('CH3(10) + CH3(10) <=> C2H6(8)', [9.450000e+14, -0.538, 0.135],
         id='gas-8')

# Reaction 9
reaction('H(12) + C2H5(13) <=> C2H6(8)', [1.000000e+14, 0.0, 0.0],
         id='gas-9')

# Reaction 10
reaction('H2(6) + CO(7) <=> CH2O(9)', [2.890000e+09, 1.16, 82.1],
         id='gas-10')

# Reaction 11
reaction('H(12) + HCO(15) <=> CH2O(9)', [4.680000e+10, 0.0, -4.53],
         id='gas-11')

# Reaction 12
reaction('CH3(10) + C2H5(13) <=> C3H8(11)', [1.230000e+15, -0.562, 0.021],
         id='gas-12')

# Reaction 13
reaction('H(12) + C2H4(18) <=> C2H5(13)', [4.620000e+08, 1.64, 1.01],
         id='gas-13')

# Reaction 14
reaction('OH(17) + CH3(10) <=> CH3OH(14)', [6.030000e+13, 0.0, 0.0],
         id='gas-14')

# Reaction 15
reaction('H(12) + CO(7) <=> HCO(15)', [1.180000e+11, 0.0, 2.72],
         id='gas-15')

# Reaction 16
reaction('CO(7) + CH4(2) <=> CH3CHO(16)', [6.560000e+04, 2.86, 86.9],
         id='gas-16')

# Reaction 17
reaction('HCO(15) + CH3(10) <=> CH3CHO(16)', [1.810000e+13, 0.0, 0.0],
         id='gas-17')

# Reaction 18
reaction('CH3OO(20) <=> O2(3) + CH3(10)', [1.090000e+14, 0.25, 33.3],
         id='gas-18')

# Reaction 19
reaction('CH3OO(20) <=> OH(17) + CH2O(9)', [4.710000e+08, 1.45, 42.27],
         id='gas-19')

# Reaction 20
reaction('HCO(15) + CH3(10) <=> CO(7) + CH4(2)', [4.000000e+13, 0.0, 0.0],
         id='gas-20')

# Reaction 21
reaction('H(12) + CH4(2) <=> H2(6) + CH3(10)', [4.100000e+03, 3.156, 8.755],
         id='gas-21')

# Reaction 22
reaction('CH3(10) + C2H6(8) <=> CH4(2) + C2H5(13)', [3.500000e+01, 3.44, 10.384],
         id='gas-22')

# Reaction 23
reaction('HCO(15) + CH4(2) <=> CH2O(9) + CH3(10)', [7.280000e+03, 2.85, 34.25],
         id='gas-23')

# Reaction 24
reaction('OH(17) + CH4(2) <=> H2O(5) + CH3(10)', [1.000000e+06, 2.182, 2.506],
         id='gas-24')

# Reaction 25
reaction('CH3(10) + C2H5(13) <=> CH4(2) + C2H4(18)', [6.570000e+14, -0.68, 0.0],
         id='gas-25')

# Reaction 26
reaction('OH(17) + HCO(15) <=> H2O(5) + CO(7)', [1.240000e+23, -3.29, 2.355],
         id='gas-26')

# Reaction 27
reaction('OH(17) + C2H6(8) <=> H2O(5) + C2H5(13)', [1.610000e+06, 2.224, 0.741],
         id='gas-27')

# Reaction 28
reaction('OH(17) + CH2O(9) <=> H2O(5) + HCO(15)', [3.440000e+09, 1.18, -0.45],
         id='gas-28')

# Reaction 29
reaction('OH(17) + C2H5(13) <=> H2O(5) + C2H4(18)', [7.230000e+13, 0.0, 0.0],
         id='gas-29')

# Reaction 30
reaction('H(12) + HCO(15) <=> H2(6) + CO(7)', [9.030000e+13, 0.0, 0.0],
         id='gas-30')

# Reaction 31
reaction('H(12) + C2H6(8) <=> H2(6) + C2H5(13)', [1.150000e+08, 1.9, 7.53],
         id='gas-31')

# Reaction 32
reaction('H2(6) + HCO(15) <=> H(12) + CH2O(9)', [1.800000e+06, 2.0, 48.94],
         id='gas-32')

# Reaction 33
reaction('H(12) + C2H5(13) <=> H2(6) + C2H4(18)', [1.083000e+13, 0.0, 0.0],
         id='gas-33')

# Reaction 34
reaction('HCO(15) + C2H5(13) <=> CO(7) + C2H6(8)', [4.300000e+13, 0.0, 0.0],
         id='gas-34')

# Reaction 35
reaction('HCO(15) + HCO(15) <=> CO(7) + CH2O(9)', [1.800000e+13, 0.0, 0.0],
         id='gas-35')

# Reaction 36
reaction('HCO(15) + C2H6(8) <=> CH2O(9) + C2H5(13)', [4.692000e+04, 2.72, 38.24],
         id='gas-36')

# Reaction 37
reaction('C2H5(13) + C2H5(13) <=> C2H4(18) + C2H6(8)', [6.900000e+13, -0.35, 0.0],
         id='gas-37')

# Reaction 38
reaction('HCO(15) + C2H5(13) <=> CH2O(9) + C2H4(18)', [5.972864e+14, -0.34, 0.0],
         id='gas-38')

# Reaction 39
reaction('C2H4(52) <=> C2H4(18)', [1.843941e+15, -1.078, 13.587],
         id='gas-39',
         options='duplicate')

# Reaction 40
reaction('C2H4(52) <=> C2H4(18)', [1.843941e+15, -1.078, 13.587],
         id='gas-40',
         options='duplicate')

# surface1 Reaction 1