units(length='cm', time='s', quantity='mol', act_energy='kcal/mol')

ideal_gas(name='gas',
          elements="H D T C Ci O Oi N Ne Ar He Si S F Cl Br I X",
          species="""Ar          Ne          N2          CH4(2)
                     O2(3)       CO2(4)      H2O(5)      H2(6)
                     CO(7)       C2H6(8)     CH2O(9)     CH3(10)
                     C3H8(11)    H(12)       C2H5(13)    CH3OH(14)
                     HCO(15)     CH3CHO(16)  OH(17)      C2H4(18)
                     CH3OO(20)   C2H4(62)""",
          reactions='gas-*',
          transport='Mix',
          initial_state=state(temperature=300.0, pressure=OneAtm))

ideal_interface(name='surface1',
                elements="H D T C Ci O Oi N Ne Ar He Si S F Cl Br I X",
                species="""X(1)        HX(21)      CO2X(22)    COX(23)
                          CH4X(24)    OX(25)      CH2X(26)    CH3X(27)
                          CHX(28)     CX(29)      H2X(30)     OHX(31)
                          H2OX(32)    CHOX(33)    CH4OX(43)   CO2X2(64)
                          C2H3X(77)   COX2(80)    CHOX2(81)   C2H3X(254)
                          SX(258)     SX(261)     SX(278)     CO2X3(285)
                          SX(331)     SX(500)     C3OX2(503)  SX(543)
                          C2H2X(790)  C3H2X(842)  C3HX(843)   C4H3X(885)""",
                site_density=2.483e-09,
                phases="gas",
          reactions='surface1-*',
                initial_state=state(temperature=300.0, pressure=OneAtm))

#-------------------------------------------------------------------------------
# Element data
#-------------------------------------------------------------------------------

element(symbol='Ci', atomic_mass=13.003)
element(symbol='D', atomic_mass=2.014)
element(symbol='Oi', atomic_mass=17.999)
element(symbol='T', atomic_mass=3.016)
element(symbol='X', atomic_mass=195.083)
#-------------------------------------------------------------------------------
# Species data
#-------------------------------------------------------------------------------

species(name='Ar',
        atoms='Ar:1',
        thermo=(NASA([200.00, 1000.00],
                     [ 2.50000000E+00,  0.00000000E+00,  0.00000000E+00,
                       0.00000000E+00,  0.00000000E+00, -7.45375000E+02,
                       4.37967000E+00]),
                NASA([1000.00, 6000.00],
                     [ 2.50000000E+00,  0.00000000E+00,  0.00000000E+00,
                       0.00000000E+00,  0.00000000E+00, -7.45375000E+02,
                       4.37967000E+00])),
        transport=gas_transport(geom='atom',
                                diam=3.33,
                                well_depth=136.501))

species(name='Ne',
        atoms='Ne:1',
        thermo=(NASA([200.00, 1000.00],
                     [ 2.50000000E+00,  0.00000000E+00,  0.00000000E+00,
                       0.00000000E+00,  0.00000000E+00, -7.45375000E+02,
                       3.35532000E+00]),
                NASA([1000.00, 6000.00],
                     [ 2.50000000E+00,  0.00000000E+00,  0.00000000E+00,
                       0.00000000E+00,  0.00000000E+00, -7.45375000E+02,
                       3.35532000E+00])),
        transport=gas_transport(geom='atom',
                                diam=3.758,
                                well_depth=148.6))

species(name='N2',
        atoms='N:2',
        thermo=(NASA([200.00, 1000.00],
                     [ 3.53101000E+00, -1.23661000E-04, -5.02999000E-07,
                       2.43531000E-09, -1.40881000E-12, -1.04698000E+03,
                       2.96747000E+00]),
                NASA([1000.00, 6000.00],
                     [ 2.95258000E+00,  1.39690000E-03, -4.92632000E-07,
                       7.86010000E-11, -4.60755000E-15, -9.23949000E+02,
                       5.87189000E+00])),
        transport=gas_transport(geom='linear',
                                diam=3.621,
                                well_depth=97.53,
                                polar=1.76,
                                rot_relax=4.0))

species(name='CH4(2)',
        atoms='C:1 H:4',
        thermo=(NASA([100.00, 1084.12],
                     [ 4.20541378E+00, -5.35555685E-03,  2.51122700E-05,
                      -2.13762147E-08,  5.97521149E-12, -1.01619432E+04,
                      -9.21274032E-01]),
                NASA([1084.12, 5000.00],
                     [ 9.08274117E-01,  1.14540720E-02, -4.57173047E-06,
                       8.29189859E-10, -5.66313411E-14, -9.71997811E+03,
                       1.39930469E+01])),
        transport=gas_transport(geom='nonlinear',
                                diam=3.746,
                                well_depth=141.4,
                                polar=2.6,
                                rot_relax=13.0))

species(name='O2(3)',
        atoms='O:2',
        thermo=(NASA([100.00, 1074.56],
                     [ 3.53732118E+00, -1.21570202E-03,  5.31615358E-06,
                      -4.89440364E-09,  1.45843807E-12, -1.03858843E+03,
                       4.68368633E+00]),
                NASA([1074.56, 5000.00],
                     [ 3.15382774E+00,  1.67803224E-03, -7.69967755E-07,
                       1.51273954E-10, -1.08781177E-14, -1.04082031E+03,
                       6.16751905E+00])),
        transport=gas_transport(geom='linear',
                                diam=3.467,
                                well_depth=106.7))

species(name='CO2(4)',
        atoms='C:1 O:2',
        thermo=(NASA([100.00, 978.22],
                     [ 3.28084123E+00,  2.50189639E-03,  8.08177735E-06,
                      -1.20508449E-08,  4.66534301E-12, -4.84008302E+04,
                       6.00082616E+00]),
                NASA([978.22, 5000.00],
                     [ 4.67428652E+00,  2.60960766E-03, -9.85670949E-07,
                       1.95709378E-10, -1.49832521E-14, -4.89512220E+04,
                      -2.11084354E+00])),
        transport=gas_transport(geom='linear',
                                diam=3.941,
                                well_depth=195.201))

species(name='H2O(5)',
        atoms='H:2 O:1',
        thermo=(NASA([100.00, 1130.24],
                     [ 4.05763582E+00, -7.87935662E-04,  2.90877429E-06,
                      -1.47518785E-09,  2.12842652E-13, -3.02815866E+04,
                      -3.11363998E-01]),
                NASA([1130.24, 5000.00],
                     [ 2.84325062E+00,  2.75108520E-03, -7.81031348E-07,
                       1.07243608E-10, -5.79391987E-15, -2.99586128E+04,
                       5.91041898E+00])),
        transport=gas_transport(geom='nonlinear',
                                diam=2.641,
                                well_depth=809.102,
                                polar=1.76,
                                rot_relax=4.0))

species(name='H2(6)',
        atoms='H:2',
        thermo=(NASA([100.00, 1959.07],
                     [ 3.43536403E+00,  2.12711126E-04, -2.78626796E-07,
                       3.40268542E-10, -7.76035403E-14, -1.03135984E+03,
                      -3.90841698E+00]),
                NASA([1959.07, 5000.00],
                     [ 2.78817514E+00,  5.87628848E-04,  1.59016078E-07,
                      -5.52750390E-11,  4.34319267E-15, -5.96149762E+02,
                       1.12677478E-01])),
        transport=gas_transport(geom='linear',
                                diam=2.833,
                                well_depth=59.7))

species(name='CO(7)',
        atoms='C:1 O:1',
        thermo=(NASA([100.00, 1571.65],
                     [ 3.56837933E+00, -8.52119359E-04,  2.48916154E-06,
                      -1.56329526E-09,  3.13590826E-13, -1.42842549E+04,
                       3.57912422E+00]),
                NASA([1571.65, 5000.00],
                     [ 2.91308532E+00,  1.64655185E-03, -6.88601689E-07,
                       1.21034554E-10, -7.83996529E-15, -1.41808944E+04,
                       6.71034902E+00])),
        transport=gas_transport(geom='linear',
                                diam=3.69,
                                well_depth=91.7,
                                polar=1.76,
                                rot_relax=4.0))

species(name='C2H6(8)',
        atoms='C:2 H:6',
        thermo=(NASA([100.00, 1012.42],
                     [ 3.72239290E+00,  1.65083859E-03,  3.44175524E-05,
                      -3.76858221E-08,  1.24450654E-11, -1.15575901E+04,
                       4.68248004E+00]),
                NASA([1012.42, 5000.00],
                     [ 2.82848264E+00,  1.73040567E-02, -6.73334238E-06,
                       1.23742023E-09, -8.65676398E-14, -1.19978081E+04,
                       5.93811671E+00])),
        transport=gas_transport(geom='nonlinear',
                                diam=4.302,
                                well_depth=252.301,
                                rot_relax=1.5))

species(name='CH2O(9)',
        atoms='C:1 H:2 O:1',
        thermo=(NASA([100.00, 1070.44],
                     [ 4.12927419E+00, -4.08396883E-03,  2.03227836E-05,
                      -1.83522372E-08,  5.37967936E-12, -1.44294638E+04,
                       3.22419840E+00]),
                NASA([1070.44, 5000.00],
                     [ 2.21174531E+00,  7.94262219E-03, -3.34191096E-06,
                       6.28466843E-10, -4.40427707E-14, -1.42974547E+04,
                       1.13047802E+01])),
        transport=gas_transport(geom='nonlinear',
                                diam=3.59,
                                well_depth=498.002,
                                rot_relax=2.0))

species(name='CH3(10)',
        atoms='C:1 H:3',
        thermo=(NASA([100.00, 697.64],
                     [ 3.96043172E+00,  5.92930978E-04,  8.78578665E-06,
                      -9.88035126E-09,  3.63236754E-12,  1.64218817E+04,
                       3.39863015E-01]),
                NASA([697.64, 5000.00],
                     [ 3.09511256E+00,  5.55429727E-03, -1.88158757E-06,
                       3.13334755E-10, -2.05194952E-14,  1.65426190E+04,
                       4.20297507E+00])),
        transport=gas_transport(geom='nonlinear',
                                diam=3.8,
                                well_depth=144.001))

species(name='C3H8(11)',
        atoms='C:3 H:8',
        thermo=(NASA([100.00, 989.99],
                     [ 3.06336227E+00,  1.29214489E-02,  3.47033067E-05,
                      -4.70946496E-08,  1.71384288E-11, -1.43905789E+04,
                       1.07835571E+01]),
                NASA([989.99, 5000.00],
                     [ 5.60439806E+00,  2.19528825E-02, -8.22080843E-06,
                       1.50104048E-09, -1.05635403E-13, -1.58394028E+04,
                      -6.22621966E+00])),
        transport=gas_transport(geom='nonlinear',
                                diam=4.982,
                                well_depth=266.801,
                                rot_relax=1.0))

species(name='H(12)',
        atoms='H:1',
        thermo=(NASA([100.00, 4996.86],
                     [ 2.50000000E+00,  4.30732087E-14, -5.28912510E-17,
                       2.10457488E-20, -2.57139738E-24,  2.54742178E+04,
                      -4.44972896E-01]),
                NASA([4996.86, 5000.00],
                     [-4.86862231E+01,  1.90728012E-02,  8.49269033E-07,
                      -9.90485659E-10,  9.34419177E-14,  1.03971294E+05,
                       3.56208045E+02])),
        transport=gas_transport(geom='atom',
                                diam=2.05,
                                well_depth=145.0))

species(name='C2H5(13)',
        atoms='C:2 H:5',
        thermo=(NASA([100.00, 1006.87],
                     [ 3.68745407E+00,  3.06903196E-03,  2.55868339E-05,
                      -2.94070355E-08,  9.94049696E-12,  1.31153653E+04,
                       6.96688911E+00]),
                NASA([1006.87, 5000.00],
                     [ 3.53785782E+00,  1.37310828E-02, -5.29559994E-06,
                       9.71471917E-10, -6.80280432E-14,  1.26351588E+04,
                       5.15539157E+00])),
        transport=gas_transport(geom='nonlinear',
                                diam=4.302,
                                well_depth=252.301,
                                rot_relax=1.5))

species(name='CH3OH(14)',
        atoms='C:1 H:4 O:1',
        thermo=(NASA([100.00, 1035.74],
                     [ 3.84006767E+00,  1.38235488E-03,  1.91669449E-05,
                      -2.01571540E-08,  6.39114253E-12, -2.56083089E+04,
                       5.90976153E+00]),
                NASA([1035.74, 5000.00],
                     [ 2.79181672E+00,  1.15828292E-02, -4.51554439E-06,
                       8.21212591E-10, -5.67068102E-14, -2.57211561E+04,
                       9.41076413E+00])),
        transport=gas_transport(geom='nonlinear',
                                diam=3.626,
                                well_depth=481.802,
                                rot_relax=1.0))

species(name='HCO(15)',
        atoms='C:1 H:1 O:1',
        thermo=(NASA([100.00, 1112.10],
                     [ 4.05936503E+00, -1.73847536E-03,  9.14984630E-06,
                      -8.01135861E-09,  2.25738966E-12,  3.84377613E+03,
                       3.32449358E+00]),
                NASA([1112.10, 5000.00],
                     [ 3.05135573E+00,  4.11707437E-03, -1.75586993E-06,
                       3.29304115E-10, -2.29175086E-14,  3.93008195E+03,
                       7.67467765E+00])),
        transport=gas_transport(geom='nonlinear',
                                diam=3.59,
                                well_depth=498.002))

species(name='CH3CHO(16)',
        atoms='C:2 H:4 O:1',
        thermo=(NASA([100.00, 1028.80],
                     [ 3.57992903E+00,  5.18977499E-03,  2.26899578E-05,
                      -2.73745313E-08,  9.28490859E-12, -2.13697376E+04,
                       8.96969754E+00]),
                NASA([1028.80, 5000.00],
                     [ 4.08561570E+00,  1.39061587E-02, -5.59372414E-06,
                       1.04609791E-09, -7.38742862E-14, -2.20391245E+04,
                       3.76814604E+00])),
        transport=gas_transport(geom='nonlinear',
                                diam=3.97,
                                well_depth=436.001,
                                rot_relax=2.0))

species(name='OH(17)',
        atoms='H:1 O:1',
        thermo=(NASA([100.00, 1145.75],
                     [ 3.51456804E+00,  2.92773617E-05, -5.32163358E-07,
                       1.01949027E-09, -3.85945173E-13,  3.41425420E+03,
                       2.10434883E+00]),
                NASA([1145.75, 5000.00],
                     [ 3.07193980E+00,  6.04015701E-04, -1.39782948E-08,
                      -2.13446092E-11,  2.48065653E-15,  3.57938677E+03,
                       4.57800011E+00])),
        transport=gas_transport(geom='linear',
                                diam=2.75,
                                well_depth=80.0))

species(name='C2H4(18)',
        atoms='C:2 H:4',
        thermo=(NASA([100.00, 979.36],
                     [ 3.97469439E+00, -4.75818088E-03,  4.16774339E-05,
                      -4.51379960E-08,  1.54219283E-11,  4.91540839E+03,
                       3.62438571E+00]),
                NASA([979.36, 5000.00],
                     [ 3.55668748E+00,  1.10626072E-02, -4.17011024E-06,
                       7.85567690E-10, -5.70044971E-14,  4.32043091E+03,
                       2.17673704E+00])),
        transport=gas_transport(geom='nonlinear',
                                diam=3.971,
                                well_depth=280.801,
                                rot_relax=1.5))

species(name='CH3OO(20)',
        atoms='C:1 H:3 O:2',
        thermo=(NASA([100.00, 1031.35],
                     [ 3.58600856E+00,  6.15348627E-03,  1.33269296E-05,
                      -1.76581529E-08,  6.13210966E-12,  2.48233563E+02,
                       9.74096021E+00]),
                NASA([1031.35, 5000.00],
                     [ 4.35022275E+00,  1.07183276E-02, -4.26215085E-06,
                       7.89578351E-10, -5.53846339E-14, -3.09810114E+02,
                       4.08928264E+00])),
        transport=gas_transport(geom='nonlinear',
                                diam=3.69,
                                well_depth=417.0,
                                dipole=1.7,
                                rot_relax=2.0))

species(name='C2H4(62)',
        atoms='C:2 H:4',
        thermo=(NASA([100.00, 846.10],
                     [ 3.36868136E+00,  1.64233773E-02, -2.16508740E-05,
                       2.18235476E-08, -8.70219794E-12,  4.28682842E+04,
                       2.18539677E+01]),
                NASA([846.10, 5000.00],
                     [ 2.62346926E+00,  1.38428778E-02, -6.25538899E-06,
                       1.16702924E-09, -7.95354929E-14,  4.32128596E+04,
                       2.66156956E+01])),
        transport=gas_transport(geom='nonlinear',
                                diam=4.443,
                                well_depth=110.7))

species(name='X(1)',
        atoms='X:1',
        thermo=(NASA([298.00, 1000.00],
                     [ 0.00000000E+00,  0.00000000E+00,  0.00000000E+00,
                       0.00000000E+00,  0.00000000E+00,  0.00000000E+00,
                       0.00000000E+00]),
                NASA([1000.00, 3000.00],
                     [ 0.00000000E+00,  0.00000000E+00,  0.00000000E+00,
                       0.00000000E+00,  0.00000000E+00,  0.00000000E+00,
                       0.00000000E+00])))

species(name='HX(21)',
        atoms='H:1 X:1',
        thermo=(NASA([298.00, 1000.00],
                     [-1.96702988E+00,  1.67920714E-02, -2.50314139E-05,
                       1.80485455E-08, -5.11491197E-12, -3.21277026E+03,
                       7.68211257E+00]),
                NASA([1000.00, 2000.00],
                     [ 2.71968546E+00, -1.07696656E-03,  2.00193294E-06,
                      -1.12865983E-09,  2.11269165E-13, -4.24701712E+03,
                      -1.52793490E+01])))

species(name='CO2X(22)',
        atoms='C:1 O:2 X:1',
        thermo=(NASA([100.00, 953.57],
                     [ 3.09272239E+00,  5.29238242E-03,  8.99595679E-06,
                      -1.67149496E-08,  7.04999678E-12, -5.24627124E+04,
                      -4.06908232E+00]),
                NASA([953.57, 5000.00],
                     [ 5.99792134E+00,  2.27504421E-03, -6.81204619E-07,
                       1.34459081E-10, -1.11531920E-14, -5.34336560E+04,
                      -2.01327610E+01])))

species(name='COX(23)',
        atoms='C:1 O:1 X:1',
        thermo=(NASA([298.00, 1000.00],
                     [ 2.70112272E+00,  8.76650166E-03, -1.29512418E-05,
                       1.04194594E-08, -3.39700490E-12, -3.49476634E+04,
                      -1.28730512E+01]),
                NASA([1000.00, 2000.00],
                     [ 5.52820880E+00, -1.52631254E-03,  2.79791895E-06,
                      -1.54550129E-09,  2.84523223E-13, -3.56231280E+04,
                      -2.69156979E+01])))

species(name='CH4X(24)',
        atoms='C:1 H:4 X:1',
        thermo=(NASA([298.00, 1000.00],
                     [ 5.26247002E+00, -7.42703413E-03,  3.36472336E-05,
                      -3.29401150E-08,  1.10259250E-11, -1.16038320E+04,
                      -1.00920541E+01]),
                NASA([1000.00, 2000.00],
                     [ 9.54981008E+00, -1.03719404E-02,  1.83183536E-05,
                      -9.63332916E-09,  1.70558531E-12, -1.32717208E+04,
                      -3.45374475E+01])))

species(name='OX(25)',
        atoms='O:1 X:1',
        thermo=(NASA([298.00, 1000.00],
                     [ 1.79722382E-01,  1.25453156E-02, -2.29924588E-05,
                       1.94187177E-08, -6.22414099E-12, -1.73402246E+04,
                      -2.22409728E+00]),
                NASA([1000.00, 2000.00],
                     [ 2.92050897E+00, -2.70455589E-04,  5.15610634E-07,
                      -2.93911213E-10,  5.54030466E-14, -1.78369003E+04,
                      -1.50940536E+01])))

species(name='CH2X(26)',
        atoms='C:1 H:2 X:1',
        thermo=(NASA([298.00, 1000.00],
                     [-2.26602367E+00,  2.92517765E-02, -4.32728797E-05,
                       3.30655723E-08, -9.93242641E-12, -2.23619445E+02,
                       8.22751288E+00]),
                NASA([1000.00, 2000.00],
                     [ 6.82572636E+00, -5.17192506E-03,  9.19551938E-06,
                      -4.87101486E-09,  8.67713091E-13, -2.26886621E+03,
                      -3.64410753E+01])))

species(name='CH3X(27)',
        atoms='C:1 H:3 X:1',
        thermo=(NASA([298.00, 1000.00],
                     [ 5.80099877E-01,  1.66399977E-02, -1.39164870E-05,
                       6.70631582E-09, -1.31079175E-12, -6.31046932E+03,
                      -7.57148375E-01]),
                NASA([1000.00, 2000.00],
                     [ 8.67869881E+00, -7.84238420E-03,  1.38956076E-05,
                      -7.33600190E-09,  1.30321431E-12, -8.45079729E+03,
                      -4.20966823E+01])))

species(name='CHX(28)',
        atoms='C:1 H:1 X:1',
        thermo=(NASA([298.00, 1000.00],
                     [-3.00950779E+00,  3.02193341E-02, -4.99546294E-05,
                       3.99478464E-08, -1.23021593E-11, -3.13353859E+03,
                       1.12314464E+01]),
                NASA([1000.00, 2000.00],
                     [ 4.88482023E+00, -2.70846119E-03,  4.84648118E-06,
                      -2.58513645E-09,  4.63180319E-13, -4.75082800E+03,
                      -2.67870735E+01])))

species(name='CX(29)',
        atoms='C:1 X:1',
        thermo=(NASA([298.00, 1000.00],
                     [-1.73430697E+00,  1.89855471E-02, -3.23563661E-05,
                       2.59269890E-08, -7.99102104E-12,  6.36385922E+03,
                       6.25445028E+00]),
                NASA([1000.00, 2000.00],
                     [ 2.82193241E+00, -6.61177416E-04,  1.24180431E-06,
                      -7.03993893E-10,  1.32276605E-13,  5.46467816E+03,
                      -1.55251271E+01])))

species(name='H2X(30)',
        atoms='H:2 X:1',
        thermo=(NASA([298.00, 1000.00],
                     [ 3.78935111E+00,  1.10148021E-03, -2.31320100E-06,
                       2.11937826E-09, -6.31350224E-13, -1.86700333E+03,
                      -1.00616465E+01]),
                NASA([1000.00, 2000.00],
                     [ 4.06700165E+00, -5.01780079E-04,  6.70738856E-07,
                      -1.79170942E-10,  8.86886631E-15, -1.89107687E+03,
                      -1.12621699E+01])))

species(name='OHX(31)',
        atoms='H:1 O:1 X:1',
        thermo=(NASA([298.00, 1000.00],
                     [ 1.07348583E+00,  1.72652206E-02, -3.17712232E-05,
                       2.71536568E-08, -8.69449304E-12, -1.96002909E+04,
                      -5.65622336E+00]),
                NASA([1000.00, 2000.00],
                     [ 5.01870328E+00, -1.35424298E-03,  2.27686310E-06,
                      -1.09407298E-09,  1.79396487E-13, -2.02979842E+04,
                      -2.41159621E+01])))

species(name='H2OX(32)',
        atoms='H:2 O:1 X:1',
        thermo=(NASA([298.00, 1000.00],
                     [ 2.53777266E+00,  9.45372010E-03, -1.41325664E-05,
                       1.16730945E-08, -3.67657640E-12, -3.27590463E+04,
                      -5.36548561E+00]),
                NASA([1000.00, 2000.00],
                     [ 5.84789466E+00, -3.31526816E-03,  5.62018785E-06,
                      -2.75864893E-09,  4.61279066E-13, -3.34885608E+04,
                      -2.15622699E+01])))

species(name='CHOX(33)',
        atoms='C:1 H:1 O:1 X:1',
        thermo=(NASA([298.00, 1000.00],
                     [ 1.94156388E+00,  1.30882912E-02, -1.34260003E-05,
                       7.97044677E-09, -2.06719711E-12, -2.80413711E+04,
                      -5.97802577E+00]),
                NASA([1000.00, 2000.00],
                     [ 7.49136303E+00, -4.18949199E-03,  7.54544313E-06,
                      -4.07863095E-09,  7.38421146E-13, -2.94916141E+04,
                      -3.42076640E+01])))

species(name='CH4OX(43)',
        atoms='C:1 H:4 O:1 X:1',
        thermo=(NASA([298.00, 1000.00],
                     [ 2.70506726E+00,  1.00913594E-02,  1.00260680E-05,
                      -1.80909603E-08,  7.44539499E-12, -3.09647604E+04,
                      -4.48135960E+00]),
                NASA([1000.00, 2000.00],
                     [ 1.21539459E+01, -1.13173411E-02,  2.00342036E-05,
                      -1.05724068E-08,  1.87852776E-12, -3.38115989E+04,
                      -5.44617359E+01])))

species(name='CO2X2(64)',
        atoms='C:1 O:2 X:2',
        thermo=(NASA([100.00, 924.22],
                     [ 3.12763681E+00, -5.99279068E-04,  3.64356826E-05,
                      -5.17510119E-08,  2.10860328E-11, -7.71711003E+04,
                      -1.62511596E+01]),
                NASA([924.22, 5000.00],
                     [ 8.66344524E+00, -1.93834948E-03,  1.89716837E-06,
                      -3.55973038E-10,  2.05504918E-14, -7.91604276E+04,
                      -4.77483835E+01])),
        size=2.0)

species(name='C2H3X(77)',
        atoms='C:2 H:3 X:1',
        thermo=(NASA([100.00, 928.61],
                     [ 3.83097461E+00, -8.76461459E-03,  6.97986687E-05,
                      -8.68010489E-08,  3.33236960E-11, -3.39667325E+03,
                      -1.81154038E+01]),
                NASA([928.61, 5000.00],
                     [ 8.78035144E+00,  1.92531546E-03,  8.25626565E-07,
                      -1.63702354E-10,  5.71330957E-15, -5.69599457E+03,
                      -4.90577736E+01])))

species(name='COX2(80)',
        atoms='C:1 O:1 X:2',
        thermo=(NASA([100.00, 907.88],
                     [ 3.29370781E+00, -4.90217137E-04,  2.06000324E-05,
                      -3.00781301E-08,  1.25808713E-11, -3.72015974E+04,
                      -1.73753735E+01]),
                NASA([907.88, 5000.00],
                     [ 6.63756781E+00, -2.14190055E-03,  1.71640576E-06,
                      -3.41166231E-10,  2.20444320E-14, -3.83478515E+04,
                      -3.61533661E+01])),
        size=2.0)

species(name='CHOX2(81)',
        atoms='C:1 H:1 O:1 X:2',
        thermo=(NASA([298.00, 1000.00],
                     [-7.63229192E-02,  2.34818104E-02, -3.17556441E-05,
                       2.22347561E-08, -6.25650920E-12, -2.44241519E+04,
                      -1.42351290E+00]),
                NASA([1000.00, 2000.00],
                     [ 7.61171587E+00, -3.81051175E-03,  6.86938717E-06,
                      -3.71585312E-09,  6.73352174E-13, -2.62393600E+04,
                      -3.96330591E+01])),
        size=2.0)

species(name='C2H3X(254)',
        atoms='C:2 H:3 X:1',
        thermo=(NASA([298.00, 1000.00],
                     [ 1.57603104E-01,  2.34293413E-02, -1.86683661E-05,
                       7.29234370E-09, -8.79008671E-13, -1.12523534E+04,
                      -1.73582278E+00]),
                NASA([1000.00, 2000.00],
                     [ 1.13050336E+01, -9.40622931E-03,  1.67935678E-05,
                      -8.96901500E-09,  1.60855621E-12, -1.42348165E+04,
                      -5.88363790E+01])))

species(name='SX(258)',
        atoms='C:2 H:3 X:2',
        thermo=(NASA([298.00, 1000.00],
                     [-3.71741524E+00,  4.45639232E-02, -5.86622119E-05,
                       4.05880256E-08, -1.12584803E-11, -2.98721220E+03,
                       1.37056124E+01]),
                NASA([1000.00, 2000.00],
                     [ 1.14826601E+01, -8.87645080E-03,  1.58590687E-05,
                      -8.47088253E-09,  1.51944591E-12, -6.59838559E+03,
                      -6.19545665E+01])),
        size=2.0)

species(name='SX(261)',
        atoms='C:2 H:2 X:2',
        thermo=(NASA([298.00, 1000.00],
                     [-1.68898057E+00,  3.52831263E-02, -4.97578493E-05,
                       3.62176199E-08, -1.04588699E-11,  2.14683932E+02,
                       6.75238906E+00]),
                NASA([1000.00, 2000.00],
                     [ 9.57180447E+00, -5.98074762E-03,  1.06737584E-05,
                      -5.68837233E-09,  1.01860349E-12, -2.37703001E+03,
                      -4.88869924E+01])),
        size=2.0)

species(name='SX(278)',
        atoms='C:2 O:2 X:2',
        thermo=(NASA([100.00, 985.14],
                     [ 2.90571334E+00,  2.54033195E-02, -3.26344998E-05,
                       2.03911693E-08, -5.03915439E-12, -6.16083510E+04,
                      -5.15157935E+00]),
                NASA([985.14, 5000.00],
                     [ 7.59979582E+00,  6.34356192E-03, -3.61330458E-06,
                       7.51656978E-10, -5.51619709E-14, -6.25332068E+04,
                      -2.77274864E+01])),
        size=2.0)

species(name='CO2X3(285)',
        atoms='C:1 O:2 X:3',
        thermo=(NASA([100.00, 924.22],
                     [ 3.12763681E+00, -5.99279068E-04,  3.64356826E-05,
                      -5.17510119E-08,  2.10860328E-11, -7.71711003E+04,
                      -1.62511596E+01]),
                NASA([924.22, 5000.00],
                     [ 8.66344524E+00, -1.93834948E-03,  1.89716837E-06,
                      -3.55973038E-10,  2.05504918E-14, -7.91604276E+04,
                      -4.77483835E+01])),
        size=3.0)

species(name='SX(331)',
        atoms='C:3 H:4 X:2',
        thermo=(NASA([100.00, 943.19],
                     [ 3.36045606E+00,  2.72350764E-03,  5.34995253E-05,
                      -7.15617224E-08,  2.76569711E-11, -5.91263030E+03,
                      -7.85326308E+00]),
                NASA([943.19, 5000.00],
                     [ 8.69198932E+00,  9.00161621E-03, -2.42762546E-06,
                       4.41827682E-10, -3.53110081E-14, -8.20335316E+03,
                      -4.00749249E+01])),