units(length='cm', time='s', quantity='mol', act_energy='kcal/mol')

ideal_gas(name='gas',
          elements="H D T C Ci O Oi N Ne Ar He Si S F Cl Br I X",
          species="""Ar          Ne          CH4(2)      O2(3)
                     CO2(4)      H2O(5)      H2(6)       CO(7)
                     C2H6(8)     CH2O(9)     CH3(10)     C3H8(11)
                     H(12)       C2H5(13)    CH3OH(14)   HCO(15)
                     CH3CHO(16)  OH(17)      C2H4(18)    CH3CH(19)
                     CH3OO(20)""",
          reactions='gas-*',
          transport='Mix',
          initial_state=state(temperature=300.0, pressure=OneAtm))

ideal_interface(name='surface1',
                elements="H D T C Ci O Oi N Ne Ar He Si S F Cl Br I X",
                species="""X(1)        HX(21)      CO2X(22)    COX(23)
                          CH4X(24)    OX(25)      CH2X(26)    CH3X(27)
                          CHX(28)     CX(29)      H2X(30)     OHX(31)
                          H2OX(32)    CHOX(33)    C3H8X(34)   C3H7X(35)
                          C3H6X(37)   C3H6X2(38)  C3H5X2(40)  C3H5X(41)
                          C3H4X2(44)  CCH3X(51)   C2H5X(52)   CHCH3X(53)
                          OCHX(54)    OCH2X(56)   OCH3X(67)   C2H6X(103)
                          CH2OX(104)  C3H6X(287)  C3H5X(296)""",
                site_density=2.483e-09,
                phases="gas",
          reactions='surface1-*',
                initial_state=state(temperature=300.0, pressure=OneAtm))

#-------------------------------------------------------------------------------
# Element data
#-------------------------------------------------------------------------------

element(symbol='Ci', atomic_mass=13.003)
element(symbol='D', atomic_mass=2.014)
element(symbol='Oi', atomic_mass=17.999)
element(symbol='T', atomic_mass=3.016)
element(symbol='X', atomic_mass=195.083)
#-------------------------------------------------------------------------------
# Species data
#-------------------------------------------------------------------------------

species(name='Ar',
        atoms='Ar:1',
        thermo=(NASA([200.00, 1000.00],
                     [ 2.50000000E+00,  0.00000000E+00,  0.00000000E+00,
                       0.00000000E+00,  0.00000000E+00, -7.45375000E+02,
                       4.37967000E+00]),
                NASA([1000.00, 6000.00],
                     [ 2.50000000E+00,  0.00000000E+00,  0.00000000E+00,
                       0.00000000E+00,  0.00000000E+00, -7.45375000E+02,
                       4.37967000E+00])),
        transport=gas_transport(geom='atom',
                                diam=3.33,
                                well_depth=136.501))

species(name='Ne',
        atoms='Ne:1',
        thermo=(NASA([200.00, 1000.00],
                     [ 2.50000000E+00,  0.00000000E+00,  0.00000000E+00,
                       0.00000000E+00,  0.00000000E+00, -7.45375000E+02,
                       3.35532000E+00]),
                NASA([1000.00, 6000.00],
                     [ 2.50000000E+00,  0.00000000E+00,  0.00000000E+00,
                       0.00000000E+00,  0.00000000E+00, -7.45375000E+02,
                       3.35532000E+00])),
        transport=gas_transport(geom='atom',
                                diam=3.758,
                                well_depth=148.6))

species(name='CH4(2)',
        atoms='C:1 H:4',
        thermo=(NASA([100.00, 1084.12],
                     [ 4.20541524E+00, -5.35557362E-03,  2.51123265E-05,
                      -2.13762843E-08,  5.97523937E-12, -1.01619433E+04,
                      -9.21279283E-01]),
                NASA([1084.12, 5000.00],
                     [ 9.08265721E-01,  1.14540858E-02, -4.57173828E-06,
                       8.29191671E-10, -5.66314895E-14, -9.71997444E+03,
                       1.39930944E+01])),
        transport=gas_transport(geom='nonlinear',
                                diam=3.746,
                                well_depth=141.4,
                                polar=2.6,
                                rot_relax=13.0))

species(name='O2(3)',
        atoms='O:2',
        thermo=(NASA([100.00, 1074.56],
                     [ 3.53732181E+00, -1.21570930E-03,  5.31617826E-06,
                      -4.89443424E-09,  1.45845042E-12, -1.03858846E+03,
                       4.68368406E+00]),
                NASA([1074.56, 5000.00],
                     [ 3.15382425E+00,  1.67803802E-03, -7.69971022E-07,
                       1.51274714E-10, -1.08781801E-14, -1.04081878E+03,
                       6.16753884E+00])),
        transport=gas_transport(geom='linear',
                                diam=3.458,
                                well_depth=107.4,
                                polar=1.6,
                                rot_relax=3.8))

species(name='CO2(4)',
        atoms='C:1 O:2',
        thermo=(NASA([100.00, 978.21],
                     [ 3.28084634E+00,  2.50183460E-03,  8.08199998E-06,
                      -1.20511416E-08,  4.66547255E-12, -4.84008304E+04,
                       6.00080795E+00]),
                NASA([978.21, 5000.00],
                     [ 4.67426743E+00,  2.60964031E-03, -9.85689857E-07,
                       1.95713857E-10, -1.49836245E-14, -4.89512140E+04,
                      -2.11073617E+00])),
        transport=gas_transport(geom='linear',
                                diam=3.763,
                                well_depth=244.001,
                                polar=2.65,
                                rot_relax=2.1))

species(name='H2O(5)',
        atoms='H:2 O:1',
        thermo=(NASA([100.00, 1130.24],
                     [ 4.05763610E+00, -7.87938871E-04,  2.90878480E-06,
                      -1.47520039E-09,  2.12847506E-13, -3.02815866E+04,
                      -3.11365027E-01]),
                NASA([1130.24, 5000.00],
                     [ 2.84324866E+00,  2.75108838E-03, -7.81033120E-07,
                       1.07244016E-10, -5.79395308E-15, -2.99586120E+04,
                       5.91043011E+00])),
        transport=gas_transport(geom='nonlinear',
                                diam=2.605,
                                well_depth=572.402,
                                dipole=1.844,
                                rot_relax=4.0))

species(name='H2(6)',
        atoms='H:2',
        thermo=(NASA([100.00, 1959.08],
                     [ 3.43536412E+00,  2.12710353E-04, -2.78625043E-07,
                       3.40267167E-10, -7.76031998E-14, -1.03135984E+03,
                      -3.90841732E+00]),
                NASA([1959.08, 5000.00],
                     [ 2.78816583E+00,  5.87640942E-04,  1.59010417E-07,
                      -5.52739026E-11,  4.34310984E-15, -5.96144270E+02,
                       1.12732655E-01])),
        transport=gas_transport(geom='linear',
                                diam=2.92,
                                well_depth=38.0,
                                polar=0.79,
                                rot_relax=280.0))

species(name='CO(7)',
        atoms='C:1 O:1',
        thermo=(NASA([100.00, 1571.63],
                     [ 3.56838038E+00, -8.52129500E-04,  2.48918819E-06,
                      -1.56331996E-09,  3.13598127E-13, -1.42842550E+04,
                       3.57912028E+00]),
                NASA([1571.63, 5000.00],
                     [ 2.91305202E+00,  1.64659937E-03, -6.88625686E-07,
                       1.21039677E-10, -7.84035796E-15, -1.41808768E+04,
                       6.71054299E+00])),
        transport=gas_transport(geom='linear',
                                diam=3.65,
                                well_depth=98.1,
                                polar=1.95,
                                rot_relax=1.8))

species(name='C2H6(8)',
        atoms='C:2 H:6',
        thermo=(NASA([100.00, 1012.42],
                     [ 3.72239291E+00,  1.65083841E-03,  3.44175530E-05,
                      -3.76858229E-08,  1.24450657E-11, -1.15575901E+04,
                       4.68247999E+00]),
                NASA([1012.42, 5000.00],
                     [ 2.82848257E+00,  1.73040568E-02, -6.73334245E-06,
                       1.23742024E-09, -8.65676410E-14, -1.19978080E+04,
                       5.93811707E+00])),
        transport=gas_transport(geom='nonlinear',
                                diam=4.302,
                                well_depth=252.301,
                                rot_relax=1.5))

species(name='CH2O(9)',
        atoms='C:1 H:2 O:1',
        thermo=(NASA([100.00, 1070.44],
                     [ 4.12927802E+00, -4.08401318E-03,  2.03229341E-05,
                      -1.83524244E-08,  5.37975522E-12, -1.44294640E+04,
                       3.22418463E+00]),
                NASA([1070.44, 5000.00],
                     [ 2.21172442E+00,  7.94265679E-03, -3.34193053E-06,
                       6.28471401E-10, -4.40431446E-14, -1.42974456E+04,
                       1.13048985E+01])),
        transport=gas_transport(geom='nonlinear',
                                diam=3.59,
                                well_depth=498.002,
                                rot_relax=2.0))

species(name='CH3(10)',
        atoms='C:1 H:3',
        thermo=(NASA([100.00, 697.71],
                     [ 3.96043098E+00,  5.92939934E-04,  8.78575390E-06,
                      -9.88030557E-09,  3.63234580E-12,  1.64218818E+04,
                       3.39865631E-01]),
                NASA([697.71, 5000.00],
                     [ 3.09511187E+00,  5.55429874E-03, -1.88158855E-06,
                       3.13335012E-10, -2.05195181E-14,  1.65426192E+04,
                       4.20297876E+00])),
        transport=gas_transport(geom='nonlinear',
                                diam=3.8,
                                well_depth=144.001))

species(name='C3H8(11)',
        atoms='C:3 H:8',
        thermo=(NASA([100.00, 989.99],
                     [ 3.06336167E+00,  1.29214561E-02,  3.47032808E-05,
                      -4.70946154E-08,  1.71384141E-11, -1.43905789E+04,
                       1.07835592E+01]),
                NASA([989.99, 5000.00],
                     [ 5.60440043E+00,  2.19528785E-02, -8.22080610E-06,
                       1.50103993E-09, -1.05635358E-13, -1.58394038E+04,
                      -6.22623300E+00])),
        transport=gas_transport(geom='nonlinear',
                                diam=4.982,
                                well_depth=266.801,
                                rot_relax=1.0))

species(name='H(12)',
        atoms='H:1',
        thermo=(NASA([100.00, 3459.60],
                     [ 2.50000000E+00,  9.24384602E-15, -1.36779837E-17,
                       6.66184769E-21, -1.00106912E-24,  2.54742178E+04,
                      -4.44972896E-01]),
                NASA([3459.60, 5000.00],
                     [ 2.49999999E+00,  9.20455546E-12, -3.58608293E-15,
                       6.15198922E-19, -3.92041801E-23,  2.54742178E+04,
                      -4.44972842E-01])),
        transport=gas_transport(geom='atom',
                                diam=2.05,
                                well_depth=145.0))

species(name='C2H5(13)',
        atoms='C:2 H:5',
        thermo=(NASA([100.00, 1006.87],
                     [ 3.68746539E+00,  3.06889693E-03,  2.55873112E-05,
                      -2.94076576E-08,  9.94076215E-12,  1.31153648E+04,
                       6.96684864E+00]),
                NASA([1006.87, 5000.00],
                     [ 3.53781010E+00,  1.37311636E-02, -5.29564638E-06,
                       9.71482858E-10, -6.80289490E-14,  1.26351790E+04,
                       5.15566048E+00])),
        transport=gas_transport(geom='nonlinear',
                                diam=4.302,
                                well_depth=252.301,
                                rot_relax=1.5))

species(name='CH3OH(14)',
        atoms='C:1 H:4 O:1',
        thermo=(NASA([100.00, 1035.75],
                     [ 3.84006214E+00,  1.38241998E-03,  1.91667191E-05,
                      -2.01568660E-08,  6.39102259E-12, -2.56083087E+04,
                       5.90978137E+00]),
                NASA([1035.75, 5000.00],
                     [ 2.79184298E+00,  1.15827852E-02, -4.51551928E-06,
                       8.21206706E-10, -5.67063250E-14, -2.57211674E+04,
                       9.41061586E+00])),
        transport=gas_transport(geom='nonlinear',
                                diam=3.626,
                                well_depth=481.802,
                                rot_relax=1.0))

species(name='HCO(15)',
        atoms='C:1 H:1 O:1',
        thermo=(NASA([100.00, 1112.10],
                     [ 4.05936407E+00, -1.73846452E-03,  9.14981041E-06,
                      -8.01131526E-09,  2.25737264E-12,  3.84377617E+03,
                       3.32449702E+00]),
                NASA([1112.10, 5000.00],
                     [ 3.05136186E+00,  4.11706437E-03, -1.75586433E-06,
                       3.29302821E-10, -2.29174030E-14,  3.93007923E+03,
                       7.67464289E+00])),
        transport=gas_transport(geom='nonlinear',
                                diam=3.59,
                                well_depth=498.002))

species(name='CH3CHO(16)',
        atoms='C:2 H:4 O:1',
        thermo=(NASA([100.00, 1028.81],
                     [ 3.57991319E+00,  5.18996203E-03,  2.26893060E-05,
                      -2.73736957E-08,  9.28455869E-12, -2.13697369E+04,
                       8.96975431E+00]),
                NASA([1028.81, 5000.00],
                     [ 4.08568882E+00,  1.39060358E-02, -5.59365394E-06,
                       1.04608143E-09, -7.38729265E-14, -2.20391558E+04,
                       3.76773341E+00])),
        transport=gas_transport(geom='nonlinear',
                                diam=3.97,
                                well_depth=436.001,
                                rot_relax=2.0))

species(name='OH(17)',
        atoms='H:1 O:1',
        thermo=(NASA([100.00, 1145.75],
                     [ 3.51456768E+00,  2.92814373E-05, -5.32176582E-07,
                       1.01950588E-09, -3.85951152E-13,  3.41425421E+03,
                       2.10435015E+00]),
                NASA([1145.75, 5000.00],
                     [ 3.07194246E+00,  6.04011411E-04, -1.39759127E-08,
                      -2.13451563E-11,  2.48070095E-15,  3.57938557E+03,
                       4.57798500E+00])),
        transport=gas_transport(geom='linear',
                                diam=2.75,
                                well_depth=80.0))

species(name='C2H4(18)',
        atoms='C:2 H:4',
        thermo=(NASA([100.00, 979.36],
                     [ 3.97471606E+00, -4.75844285E-03,  4.16783770E-05,
                      -4.51392516E-08,  1.54224761E-11,  4.91540746E+03,
                       3.62430844E+00]),
                NASA([979.36, 5000.00],
                     [ 3.55660610E+00,  1.10627464E-02, -4.17019079E-06,
                       7.85586770E-10, -5.70060829E-14,  4.32046489E+03,
                       2.17719479E+00])),
        transport=gas_transport(geom='nonlinear',
                                diam=3.971,
                                well_depth=280.801,
                                rot_relax=1.5))

species(name='CH3CH(19)',
        atoms='C:2 H:4',
        thermo=(NASA([100.00, 960.81],
                     [ 3.82362614E+00, -9.09515013E-04,  3.21380045E-05,
                      -3.73479628E-08,  1.33090411E-11,  4.13713807E+04,
                       7.10947895E+00]),
                NASA([960.81, 5000.00],
                     [ 4.30486689E+00,  9.43068672E-03, -3.27558659E-06,
                       5.95121455E-10, -4.27306723E-14,  4.07091446E+04,
                       1.84201949E+00])),
        transport=gas_transport(geom='nonlinear',
                                diam=4.767,
                                well_depth=309.48))

species(name='CH3OO(20)',
        atoms='C:1 H:3 O:2',
        thermo=(NASA([100.00, 1031.35],
                     [ 3.58600855E+00,  6.15348645E-03,  1.33269290E-05,
                      -1.76581521E-08,  6.13210932E-12,  2.48233564E+02,
                       9.74096027E+00]),
                NASA([1031.35, 5000.00],
                     [ 4.35022282E+00,  1.07183275E-02, -4.26215078E-06,
                       7.89578335E-10, -5.53846326E-14, -3.09810145E+02,
                       4.08928223E+00])),
        transport=gas_transport(geom='nonlinear',
                                diam=3.69,
                                well_depth=417.0,
                                dipole=1.7,
                                rot_relax=2.0))

species(name='X(1)',
        atoms='X:1',
        thermo=(NASA([298.00, 1000.00],
                     [ 0.00000000E+00,  0.00000000E+00,  0.00000000E+00,
                       0.00000000E+00,  0.00000000E+00,  0.00000000E+00,
                       0.00000000E+00]),
                NASA([1000.00, 3000.00],
                     [ 0.00000000E+00,  0.00000000E+00,  0.00000000E+00,
                       0.00000000E+00,  0.00000000E+00,  0.00000000E+00,
                       0.00000000E+00])))

species(name='HX(21)',
        atoms='H:1 X:1',
        thermo=(NASA([298.00, 1000.00],
                     [-1.96702988E+00,  1.67920714E-02, -2.50314139E-05,
                       1.80485455E-08, -5.11491197E-12, -3.21277026E+03,
                       7.68211257E+00]),
                NASA([1000.00, 2000.00],
                     [ 2.71968546E+00, -1.07696656E-03,  2.00193294E-06,
                      -1.12865983E-09,  2.11269165E-13, -4.24701712E+03,
                      -1.52793490E+01])))

species(name='CO2X(22)',
        atoms='C:1 O:2 X:1',
        thermo=(NASA([100.00, 953.60],
                     [ 3.09268416E+00,  5.29285051E-03,  8.99424169E-06,
                      -1.67126189E-08,  7.04895731E-12, -5.24627108E+04,
                      -4.06894637E+00]),
                NASA([953.60, 5000.00],
                     [ 5.99804988E+00,  2.27482238E-03, -6.81075329E-07,
                       1.34428306E-10, -1.11506248E-14, -5.34337089E+04,
                      -2.01334826E+01])))

species(name='COX(23)',
        atoms='C:1 O:1 X:1',
        thermo=(NASA([298.00, 1000.00],
                     [ 2.70112272E+00,  8.76650166E-03, -1.29512418E-05,
                       1.04194594E-08, -3.39700490E-12, -3.49476634E+04,
                      -1.28730512E+01]),
                NASA([1000.00, 2000.00],
                     [ 5.52820880E+00, -1.52631254E-03,  2.79791895E-06,
                      -1.54550129E-09,  2.84523223E-13, -3.56231280E+04,
                      -2.69156979E+01])))

species(name='CH4X(24)',
        atoms='C:1 H:4 X:1',
        thermo=(NASA([298.00, 1000.00],
                     [ 5.26247002E+00, -7.42703413E-03,  3.36472336E-05,
                      -3.29401150E-08,  1.10259250E-11, -1.16038320E+04,
                      -1.00920541E+01]),
                NASA([1000.00, 2000.00],
                     [ 9.54981008E+00, -1.03719404E-02,  1.83183536E-05,
                      -9.63332916E-09,  1.70558531E-12, -1.32717208E+04,
                      -3.45374475E+01])))

species(name='OX(25)',
        atoms='O:1 X:1',
        thermo=(NASA([298.00, 1000.00],
                     [ 1.79722382E-01,  1.25453156E-02, -2.29924588E-05,
                       1.94187177E-08, -6.22414099E-12, -1.73402246E+04,
                      -2.22409728E+00]),
                NASA([1000.00, 2000.00],
                     [ 2.92050897E+00, -2.70455589E-04,  5.15610634E-07,
                      -2.93911213E-10,  5.54030466E-14, -1.78369003E+04,
                      -1.50940536E+01])))

species(name='CH2X(26)',
        atoms='C:1 H:2 X:1',
        thermo=(NASA([298.00, 1000.00],
                     [-2.26602367E+00,  2.92517765E-02, -4.32728797E-05,
                       3.30655723E-08, -9.93242641E-12, -2.23619445E+02,
                       8.22751288E+00]),
                NASA([1000.00, 2000.00],
                     [ 6.82572636E+00, -5.17192506E-03,  9.19551938E-06,
                      -4.87101486E-09,  8.67713091E-13, -2.26886621E+03,
                      -3.64410753E+01])))

species(name='CH3X(27)',
        atoms='C:1 H:3 X:1',
        thermo=(NASA([298.00, 1000.00],
                     [ 5.80099877E-01,  1.66399977E-02, -1.39164870E-05,
                       6.70631582E-09, -1.31079175E-12, -6.31046932E+03,
                      -7.57148375E-01]),
                NASA([1000.00, 2000.00],
                     [ 8.67869881E+00, -7.84238420E-03,  1.38956076E-05,
                      -7.33600190E-09,  1.30321431E-12, -8.45079729E+03,
                      -4.20966823E+01])))

species(name='CHX(28)',
        atoms='C:1 H:1 X:1',
        thermo=(NASA([298.00, 1000.00],
                     [-3.00950779E+00,  3.02193341E-02, -4.99546294E-05,
                       3.99478464E-08, -1.23021593E-11, -3.13353859E+03,
                       1.12314464E+01]),
                NASA([1000.00, 2000.00],
                     [ 4.88482023E+00, -2.70846119E-03,  4.84648118E-06,
                      -2.58513645E-09,  4.63180319E-13, -4.75082800E+03,
                      -2.67870735E+01])))

species(name='CX(29)',
        atoms='C:1 X:1',
        thermo=(NASA([298.00, 1000.00],
                     [-1.73430697E+00,  1.89855471E-02, -3.23563661E-05,
                       2.59269890E-08, -7.99102104E-12,  6.36385922E+03,
                       6.25445028E+00]),
                NASA([1000.00, 2000.00],
                     [ 2.82193241E+00, -6.61177416E-04,  1.24180431E-06,
                      -7.03993893E-10,  1.32276605E-13,  5.46467816E+03,
                      -1.55251271E+01])))

species(name='H2X(30)',
        atoms='H:2 X:1',
        thermo=(NASA([298.00, 1000.00],
                     [ 3.78935111E+00,  1.10148021E-03, -2.31320100E-06,
                       2.11937826E-09, -6.31350224E-13, -1.86700333E+03,
                      -1.00616465E+01]),
                NASA([1000.00, 2000.00],
                     [ 4.06700165E+00, -5.01780079E-04,  6.70738856E-07,
                      -1.79170942E-10,  8.86886631E-15, -1.89107687E+03,
                      -1.12621699E+01])))

species(name='OHX(31)',
        atoms='H:1 O:1 X:1',
        thermo=(NASA([298.00, 1000.00],
                     [ 1.07348583E+00,  1.72652206E-02, -3.17712232E-05,
                       2.71536568E-08, -8.69449304E-12, -1.96002909E+04,
                      -5.65622336E+00]),
                NASA([1000.00, 2000.00],
                     [ 5.01870328E+00, -1.35424298E-03,  2.27686310E-06,
                      -1.09407298E-09,  1.79396487E-13, -2.02979842E+04,
                      -2.41159621E+01])))

species(name='H2OX(32)',
        atoms='H:2 O:1 X:1',
        thermo=(NASA([298.00, 1000.00],
                     [ 2.53777266E+00,  9.45372010E-03, -1.41325664E-05,
                       1.16730945E-08, -3.67657640E-12, -3.27590463E+04,
                      -5.36548561E+00]),
                NASA([1000.00, 2000.00],
                     [ 5.84789466E+00, -3.31526816E-03,  5.62018785E-06,
                      -2.75864893E-09,  4.61279066E-13, -3.34885608E+04,
                      -2.15622699E+01])))

species(name='CHOX(33)',
        atoms='C:1 H:1 O:1 X:1',
        thermo=(NASA([298.00, 1000.00],
                     [ 1.94156388E+00,  1.30882912E-02, -1.34260003E-05,
                       7.97044677E-09, -2.06719711E-12, -2.80413711E+04,
                      -5.97802577E+00]),
                NASA([1000.00, 2000.00],
                     [ 7.49136303E+00, -4.18949199E-03,  7.54544313E-06,
                      -4.07863095E-09,  7.38421146E-13, -2.94916141E+04,
                      -3.42076640E+01])))

species(name='C3H8X(34)',
        atoms='C:3 H:8 X:1',
        thermo=(NASA([100.00, 1037.07],
                     [ 2.71701292E+00,  2.23900040E-02,  1.20439524E-05,
                      -2.46114482E-08,  9.27180127E-12, -1.76131395E+04,
                       3.15477496E+00]),
                NASA([1037.07, 5000.00],
                     [ 5.99089869E+00,  2.33889894E-02, -9.10990538E-06,
                       1.65660396E-09, -1.14636471E-13, -1.90249633E+04,
                      -1.62918970E+01])))

species(name='C3H7X(35)',
        atoms='C:3 H:7 X:1',
        thermo=(NASA([100.00, 962.23],
                     [ 2.98507617E+00,  1.18443143E-02,  4.44611757E-05,
                      -6.24987896E-08,  2.38543137E-11, -1.32641587E+04,
                      -8.29655001E+00]),
                NASA([962.23, 5000.00],
                     [ 7.84456291E+00,  1.80195209E-02, -6.28241367E-06,
                       1.14556333E-09, -8.27268880E-14, -1.54204139E+04,
                      -3.78986463E+01])))

species(name='C3H6X(37)',
        atoms='C:3 H:6 X:1',
        thermo=(NASA([100.00, 962.90],
                     [ 2.89772327E+00,  1.49758414E-02,  3.05793982E-05,
                      -4.86355653E-08,  1.92877249E-11, -7.75959317E+03,
                      -9.09775504E+00]),
                NASA([962.90, 5000.00],
                     [ 8.60390405E+00,  1.44745078E-02, -4.78484795E-06,
                       8.74235230E-10, -6.39912571E-14, -9.93414412E+03,
                      -4.19965488E+01])))

species(name='C3H6X2(38)',
        atoms='C:3 H:6 X:2',
        thermo=(NASA([100.00, 948.69],
                     [ 3.07118578E+00,  8.61077477E-03,  5.12631294E-05,
                      -7.15338304E-08,  2.77668287E-11, -1.31318977E+04,
                      -1.06063937E+01]),
                NASA([948.69, 5000.00],
                     [ 8.95058304E+00,  1.37758173E-02, -4.26572632E-06,
                       7.70339620E-10, -5.76148652E-14, -1.55954111E+04,
                      -4.57657852E+01])),
        size=2.0)

species(name='C3H5X2(40)',
        atoms='C:3 H:5 X:2',
        thermo=(NASA([100.00, 939.34],
                     [ 3.53361501E+00, -5.45427840E-03,  8.56251131E-05,
                      -1.07356925E-07,  4.07615114E-11, -9.53183858E+03,
                      -1.52174204E+01]),
                NASA([939.34, 5000.00],
                     [ 9.53720524E+00,  9.18334586E-03, -1.94707549E-06,
                       3.56641919E-10, -3.18018069E-14, -1.24334015E+04,
                      -5.32466395E+01])),
        size=2.0)

species(name='C3H5X(41)',
        atoms='C:3 H:5 X:1',
        thermo=(NASA([100.00, 1066.13],
                     [ 2.92677028E+00,  1.90083567E-02,  3.91408885E-06,
                      -1.44189524E-08,  5.70885516E-12, -6.61827051E+03,
                      -1.03086929E+01]),
                NASA([1066.13, 5000.00],
                     [ 6.42202508E+00,  1.61952777E-02, -6.62080615E-06,
                       1.23127580E-09, -8.61442649E-14, -7.94895320E+03,
                      -3.01405654E+01])))

species(name='C3H4X2(44)',
        atoms='C:3 H:4 X:2',
        thermo=(NASA([100.00, 943.19],
                     [ 3.36049112E+00,  2.72307616E-03,  5.35011178E-05,
                      -7.15639047E-08,  2.76579534E-11, -5.91263179E+03,
                      -7.85338760E+00]),
                NASA([943.19, 5000.00],
                     [ 8.69187667E+00,  9.00181139E-03, -2.42773952E-06,
                       4.41854888E-10, -3.53132809E-14, -8.20330695E+03,
                      -4.00742930E+01])),
        size=2.0)

species(name='CCH3X(51)',
        atoms='C:2 H:3 X:1',
        thermo=(NASA([298.00, 1000.00],
                     [ 1.57603104E-01,  2.34293413E-02, -1.86683661E-05,
                       7.29234370E-09, -8.79008671E-13, -1.12523534E+04,
                      -1.73582278E+00]),
                NASA([1000.00, 2000.00],
                     [ 1.13050336E+01, -9.40622931E-03,  1.67935678E-05,
                      -8.96901500E-09,  1.60855621E-12, -1.42348165E+04,
                      -5.88363790E+01])))

species(name='C2H5X(52)',
        atoms='C:2 H:5 X:1',
        thermo=(NASA([298.00, 1000.00],
                     [ 6.32861243E-01,  2.34315125E-02, -6.21561097E-06,
                      -7.04743109E-09,  4.32504726E-12, -1.03526448E+04,
                      -4.22788616E-01]),
                NASA([1000.00, 2000.00],
                     [ 1.50901779E+01, -1.47664787E-02,  2.62942501E-05,
                      -1.39941239E-08,  2.50255356E-12, -1.44464142E+04,
                      -7.55761454E+01])))

species(name='CHCH3X(53)',
        atoms='C:2 H:4 X:1',
        thermo=(NASA([298.00, 1000.00],
                     [-2.39195145E-01,  2.71965302E-02, -1.96479590E-05,
                       6.17925647E-09, -1.84661314E-13, -5.60696357E+03,
                       2.67225219E-01]),
                NASA([1000.00, 2000.00],
                     [ 1.32714698E+01, -1.19649775E-02,  2.13410724E-05,
                      -1.13827464E-08,  2.03915294E-12, -9.25414727E+03,
                      -6.90961026E+01])))

species(name='OCHX(54)',
        atoms='C:1 H:1 O:1 X:2',
        thermo=(NASA([298.00, 1000.00],
                     [-7.63229192E-02,  2.34818104E-02, -3.17556441E-05,
                       2.22347561E-08, -6.25650920E-12, -2.44241519E+04,
                      -1.42351290E+00]),
                NASA([1000.00, 2000.00],
                     [ 7.61171587E+00, -3.81051175E-03,  6.86938717E-06,
                      -3.71585312E-09,  6.73352174E-13, -2.62393600E+04,
                      -3.96330591E+01])),
        size=2.0)

species(name='OCH2X(56)',
        atoms='C:1 H:2 O:1 X:2',
        thermo=(NASA([298.00, 1000.00],
                     [ 1.02400610E-01,  2.37197512E-02, -2.57930815E-05,
                       1.52033151E-08, -3.68397327E-12, -2.14196483E+04,
                      -4.98129327E-01]),
                NASA([1000.00, 2000.00],
                     [ 9.52719632E+00, -6.50602819E-03,  1.16581384E-05,
                      -6.25773731E-09,  1.12684291E-12, -2.38121944E+04,
                      -4.81511621E+01])),