units(length='cm', time='s', quantity='mol', act_energy='kcal/mol')

ideal_gas(name='gas',
          elements="H D T C Ci O Oi N Ne Ar He Si S F Cl Br I X",
          species="""Ar          Ne          N2          CH4(2)
                     O2(3)       CO2(4)      H2O(5)      H2(6)
                     CO(7)       C2H6(8)     CH2O(9)     CH3(10)
                     C3H8(11)    H(12)       C2H5(13)    CH3OH(14)
                     HCO(15)     CH3CHO(16)  OH(17)      C2H4(18)
                     CH3OO(20)   C2H4(52)""",
          reactions='gas-*',
          transport='Mix',
          initial_state=state(temperature=300.0, pressure=OneAtm))

ideal_interface(name='surface1',
                elements="H D T C Ci O Oi N Ne Ar He Si S F Cl Br I X",
                species="""X(1)        HX(21)      CO2X(22)    COX(23)
                          CH4X(24)    OX(25)      CH2X(26)    CH3X(27)
                          CHX(28)     CX(29)      H2X(30)     OHX(31)
                          H2OX(32)    CHOX(33)    CO2X2(54)   COX2(74)
                          CHOX2(75)   CHO2X(144)  C2H3X(251)  SX(258)
                          CO2X3(282)""",
                site_density=2.483e-09,
                phases="gas",
          reactions='surface1-*',
                initial_state=state(temperature=300.0, pressure=OneAtm))

#-------------------------------------------------------------------------------
# Element data
#-------------------------------------------------------------------------------

element(symbol='Ci', atomic_mass=13.003)
element(symbol='D', atomic_mass=2.014)
element(symbol='Oi', atomic_mass=17.999)
element(symbol='T', atomic_mass=3.016)
element(symbol='X', atomic_mass=195.083)
#-------------------------------------------------------------------------------
# Species data
#-------------------------------------------------------------------------------

species(name='Ar',
        atoms='Ar:1',
        thermo=(NASA([200.00, 1000.00],
                     [ 2.50000000E+00,  0.00000000E+00,  0.00000000E+00,
                       0.00000000E+00,  0.00000000E+00, -7.45375000E+02,
                       4.37967000E+00]),
                NASA([1000.00, 6000.00],
                     [ 2.50000000E+00,  0.00000000E+00,  0.00000000E+00,
                       0.00000000E+00,  0.00000000E+00, -7.45375000E+02,
                       4.37967000E+00])),
        transport=gas_transport(geom='atom',
                                diam=3.33,
                                well_depth=136.501))

species(name='Ne',
        atoms='Ne:1',
        thermo=(NASA([200.00, 1000.00],
                     [ 2.50000000E+00,  0.00000000E+00,  0.00000000E+00,
                       0.00000000E+00,  0.00000000E+00, -7.45375000E+02,
                       3.35532000E+00]),
                NASA([1000.00, 6000.00],
                     [ 2.50000000E+00,  0.00000000E+00,  0.00000000E+00,
                       0.00000000E+00,  0.00000000E+00, -7.45375000E+02,
                       3.35532000E+00])),
        transport=gas_transport(geom='atom',
                                diam=3.758,
                                well_depth=148.6))

species(name='N2',
        atoms='N:2',
        thermo=(NASA([200.00, 1000.00],
                     [ 3.53101000E+00, -1.23661000E-04, -5.02999000E-07,
                       2.43531000E-09, -1.40881000E-12, -1.04698000E+03,
                       2.96747000E+00]),
                NASA([1000.00, 6000.00],
                     [ 2.95258000E+00,  1.39690000E-03, -4.92632000E-07,
                       7.86010000E-11, -4.60755000E-15, -9.23949000E+02,
                       5.87189000E+00])),
        transport=gas_transport(geom='linear',
                                diam=3.621,
                                well_depth=97.53,
                                polar=1.76,
                                rot_relax=4.0))

species(name='CH4(2)',
        atoms='C:1 H:4',
        thermo=(NASA([100.00, 1084.13],
                     [ 4.20541194E+00, -5.35553558E-03,  2.51121985E-05,
                      -2.13761265E-08,  5.97517614E-12, -1.01619432E+04,
                      -9.21267377E-01]),
                NASA([1084.13, 5000.00],
                     [ 9.08284759E-01,  1.14540544E-02, -4.57172059E-06,
                       8.29187562E-10, -5.66311530E-14, -9.71998278E+03,
                       1.39929866E+01])),
        transport=gas_transport(geom='nonlinear',
                                diam=3.746,
                                well_depth=141.4,
                                polar=2.6,
                                rot_relax=13.0))

species(name='O2(3)',
        atoms='O:2',
        thermo=(NASA([100.00, 1074.55],
                     [ 3.53732306E+00, -1.21572374E-03,  5.31622715E-06,
                      -4.89449486E-09,  1.45847491E-12, -1.03858852E+03,
                       4.68367956E+00]),
                NASA([1074.55, 5000.00],
                     [ 3.15381732E+00,  1.67804947E-03, -7.69977495E-07,
                       1.51276220E-10, -1.08783036E-14, -1.04081576E+03,
                       6.16757806E+00])),
        transport=gas_transport(geom='linear',
                                diam=3.467,
                                well_depth=106.7))

species(name='CO2(4)',
        atoms='C:1 O:2',
        thermo=(NASA([100.00, 978.23],
                     [ 3.28083527E+00,  2.50196842E-03,  8.08151784E-06,
                      -1.20504991E-08,  4.66519201E-12, -4.84008299E+04,
                       6.00084740E+00]),
                NASA([978.23, 5000.00],
                     [ 4.67430878E+00,  2.60956959E-03, -9.85648902E-07,
                       1.95704154E-10, -1.49828179E-14, -4.89512313E+04,
                      -2.11096873E+00])),
        transport=gas_transport(geom='linear',
                                diam=3.941,
                                well_depth=195.201))

species(name='H2O(5)',
        atoms='H:2 O:1',
        thermo=(NASA([100.00, 1130.24],
                     [ 4.05763553E+00, -7.87932479E-04,  2.90876387E-06,
                      -1.47517542E-09,  2.12837837E-13, -3.02815866E+04,
                      -3.11362977E-01]),
                NASA([1130.24, 5000.00],
                     [ 2.84325256E+00,  2.75108205E-03, -7.81029590E-07,
                       1.07243203E-10, -5.79388693E-15, -2.99586137E+04,
                       5.91040795E+00])),
        transport=gas_transport(geom='nonlinear',
                                diam=2.641,
                                well_depth=809.102,
                                polar=1.76,
                                rot_relax=4.0))

species(name='H2(6)',
        atoms='H:2',
        thermo=(NASA([100.00, 1959.07],
                     [ 3.43536395E+00,  2.12711841E-04, -2.78628417E-07,
                       3.40269813E-10, -7.76038552E-14, -1.03135983E+03,
                      -3.90841666E+00]),
                NASA([1959.07, 5000.00],
                     [ 2.78818374E+00,  5.87617671E-04,  1.59021311E-07,
                      -5.52760891E-11,  4.34326921E-15, -5.96154838E+02,
                       1.12626481E-01])),
        transport=gas_transport(geom='linear',
                                diam=2.833,
                                well_depth=59.7))

species(name='CO(7)',
        atoms='C:1 O:1',
        thermo=(NASA([100.00, 1571.63],
                     [ 3.56838045E+00, -8.52130174E-04,  2.48918996E-06,
                      -1.56332160E-09,  3.13598612E-13, -1.42842550E+04,
                       3.57912002E+00]),
                NASA([1571.63, 5000.00],
                     [ 2.91304980E+00,  1.64660253E-03, -6.88627283E-07,
                       1.21040018E-10, -7.84038409E-15, -1.41808757E+04,
                       6.71055590E+00])),
        transport=gas_transport(geom='linear',
                                diam=3.69,
                                well_depth=91.7,
                                polar=1.76,
                                rot_relax=4.0))

species(name='C2H6(8)',
        atoms='C:2 H:6',
        thermo=(NASA([100.00, 1012.42],
                     [ 3.72238710E+00,  1.65090756E-03,  3.44173095E-05,
                      -3.76855068E-08,  1.24449316E-11, -1.15575899E+04,
                       4.68250079E+00]),
                NASA([1012.42, 5000.00],
                     [ 2.82850765E+00,  1.73040145E-02, -6.73331813E-06,
                       1.23741452E-09, -8.65671675E-14, -1.19978187E+04,
                       5.93797572E+00])),
        transport=gas_transport(geom='nonlinear',
                                diam=4.302,
                                well_depth=252.301,
                                rot_relax=1.5))

species(name='CH2O(9)',
        atoms='C:1 H:2 O:1',
        thermo=(NASA([100.00, 1070.44],
                     [ 4.12927411E+00, -4.08396791E-03,  2.03227805E-05,
                      -1.83522333E-08,  5.37967780E-12, -1.44294638E+04,
                       3.22419869E+00]),
                NASA([1070.44, 5000.00],
                     [ 2.21174574E+00,  7.94262147E-03, -3.34191055E-06,
                       6.28466749E-10, -4.40427629E-14, -1.42974549E+04,
                       1.13047778E+01])),
        transport=gas_transport(geom='nonlinear',
                                diam=3.59,
                                well_depth=498.002,
                                rot_relax=2.0))

species(name='CH3(10)',
        atoms='C:1 H:3',
        thermo=(NASA([100.00, 697.60],
                     [ 3.96043210E+00,  5.92926328E-04,  8.78580361E-06,
                      -9.88037483E-09,  3.63237870E-12,  1.64218817E+04,
                       3.39861655E-01]),
                NASA([697.60, 5000.00],
                     [ 3.09511293E+00,  5.55429649E-03, -1.88158705E-06,
                       3.13334619E-10, -2.05194830E-14,  1.65426189E+04,
                       4.20297310E+00])),
        transport=gas_transport(geom='nonlinear',
                                diam=3.8,
                                well_depth=144.001))

species(name='C3H8(11)',
        atoms='C:3 H:8',
        thermo=(NASA([100.00, 990.00],
                     [ 3.06335244E+00,  1.29215671E-02,  3.47028840E-05,
                      -4.70940915E-08,  1.71381876E-11, -1.43905785E+04,
                       1.07835922E+01]),
                NASA([990.00, 5000.00],
                     [ 5.60443667E+00,  2.19528167E-02, -8.22077046E-06,
                       1.50103150E-09, -1.05634659E-13, -1.58394190E+04,
                      -6.22643703E+00])),
        transport=gas_transport(geom='nonlinear',
                                diam=4.982,
                                well_depth=266.801,
                                rot_relax=1.0))

species(name='H(12)',
        atoms='H:1',
        thermo=(NASA([100.00, 4762.74],
                     [ 2.50000000E+00, -1.87769028E-11,  2.35957382E-14,
                      -9.62803665E-18,  1.20727680E-21,  2.54742178E+04,
                      -4.44972910E-01]),
                NASA([4762.74, 5000.00],
                     [ 2.87626762E+00, -3.12580154E-04,  9.73654773E-08,
                      -1.34776059E-11,  6.99515521E-16,  2.51119154E+04,
                      -2.85161700E+00])),
        transport=gas_transport(geom='atom',
                                diam=2.05,
                                well_depth=145.0))

species(name='C2H5(13)',
        atoms='C:2 H:5',
        thermo=(NASA([100.00, 1006.87],
                     [ 3.68745357E+00,  3.06903791E-03,  2.55868128E-05,
                      -2.94070081E-08,  9.94048528E-12,  1.31153653E+04,
                       6.96689090E+00]),
                NASA([1006.87, 5000.00],
                     [ 3.53785992E+00,  1.37310792E-02, -5.29559790E-06,
                       9.71471434E-10, -6.80280032E-14,  1.26351580E+04,
                       5.15537972E+00])),
        transport=gas_transport(geom='nonlinear',
                                diam=4.302,
                                well_depth=252.301,
                                rot_relax=1.5))

species(name='CH3OH(14)',
        atoms='C:1 H:4 O:1',
        thermo=(NASA([100.00, 1035.75],
                     [ 3.84006499E+00,  1.38238646E-03,  1.91668353E-05,
                      -2.01570143E-08,  6.39108434E-12, -2.56083088E+04,
                       5.90977116E+00]),
                NASA([1035.75, 5000.00],
                     [ 2.79182946E+00,  1.15828079E-02, -4.51553221E-06,
                       8.21209736E-10, -5.67065748E-14, -2.57211616E+04,
                       9.41069220E+00])),
        transport=gas_transport(geom='nonlinear',
                                diam=3.626,
                                well_depth=481.802,
                                rot_relax=1.0))

species(name='HCO(15)',
        atoms='C:1 H:1 O:1',
        thermo=(NASA([100.00, 1112.09],
                     [ 4.05936669E+00, -1.73849429E-03,  9.14990893E-06,
                      -8.01143425E-09,  2.25741935E-12,  3.84377606E+03,
                       3.32448757E+00]),
                NASA([1112.09, 5000.00],
                     [ 3.05134504E+00,  4.11709183E-03, -1.75587970E-06,
                       3.29306373E-10, -2.29176928E-14,  3.93008669E+03,
                       7.67473832E+00])),
        transport=gas_transport(geom='nonlinear',
                                diam=3.59,
                                well_depth=498.002))

species(name='CH3CHO(16)',
        atoms='C:2 H:4 O:1',
        thermo=(NASA([100.00, 1028.81],
                     [ 3.57991902E+00,  5.18989319E-03,  2.26895459E-05,
                      -2.73740033E-08,  9.28468747E-12, -2.13697372E+04,
                       8.96973342E+00]),
                NASA([1028.81, 5000.00],
                     [ 4.08566191E+00,  1.39060811E-02, -5.59367978E-06,
                       1.04608750E-09, -7.38734269E-14, -2.20391443E+04,
                       3.76788528E+00])),
        transport=gas_transport(geom='nonlinear',
                                diam=3.97,
                                well_depth=436.001,
                                rot_relax=2.0))

species(name='OH(17)',
        atoms='H:1 O:1',
        thermo=(NASA([100.00, 1145.75],
                     [ 3.51456804E+00,  2.92773479E-05, -5.32163313E-07,
                       1.01949022E-09, -3.85945153E-13,  3.41425420E+03,
                       2.10434883E+00]),
                NASA([1145.75, 5000.00],
                     [ 3.07193980E+00,  6.04015715E-04, -1.39783027E-08,
                      -2.13446074E-11,  2.48065638E-15,  3.57938677E+03,
                       4.57800016E+00])),
        transport=gas_transport(geom='linear',
                                diam=2.75,
                                well_depth=80.0))

species(name='C2H4(18)',
        atoms='C:2 H:4',
        thermo=(NASA([100.00, 979.36],
                     [ 3.97470870E+00, -4.75835394E-03,  4.16780569E-05,
                      -4.51388255E-08,  1.54222902E-11,  4.91540777E+03,
                       3.62433466E+00]),
                NASA([979.36, 5000.00],
                     [ 3.55663371E+00,  1.10626992E-02, -4.17016347E-06,
                       7.85580297E-10, -5.70055449E-14,  4.32045336E+03,
                       2.17703949E+00])),
        transport=gas_transport(geom='nonlinear',
                                diam=3.971,
                                well_depth=280.801,
                                rot_relax=1.5))

species(name='CH3OO(20)',
        atoms='C:1 H:3 O:2',
        thermo=(NASA([100.00, 1031.34],
                     [ 3.58601205E+00,  6.15344516E-03,  1.33270727E-05,
                      -1.76583359E-08,  6.13218614E-12,  2.48233413E+02,
                       9.74094772E+00]),
                NASA([1031.34, 5000.00],
                     [ 4.35020649E+00,  1.07183549E-02, -4.26216643E-06,
                       7.89582007E-10, -5.53849355E-14, -3.09803160E+02,
                       4.08937440E+00])),
        transport=gas_transport(geom='nonlinear',
                                diam=3.69,
                                well_depth=417.0,
                                dipole=1.7,
                                rot_relax=2.0))

species(name='C2H4(52)',
        atoms='C:2 H:4',
        thermo=(NASA([100.00, 846.11],
                     [ 3.36869910E+00,  1.64231472E-02, -2.16499620E-05,
                       2.18221894E-08, -8.70152870E-12,  4.28682835E+04,
                       2.18539054E+01]),
                NASA([846.11, 5000.00],
                     [ 2.62343270E+00,  1.38429435E-02, -6.25542845E-06,
                       1.16703883E-09, -7.95363055E-14,  4.32128739E+04,
                       2.66158993E+01])),
        transport=gas_transport(geom='nonlinear',
                                diam=4.443,
                                well_depth=110.7))

species(name='X(1)',
        atoms='X:1',
        thermo=(NASA([298.00, 1000.00],
                     [ 0.00000000E+00,  0.00000000E+00,  0.00000000E+00,
                       0.00000000E+00,  0.00000000E+00,  0.00000000E+00,
                       0.00000000E+00]),
                NASA([1000.00, 3000.00],
                     [ 0.00000000E+00,  0.00000000E+00,  0.00000000E+00,
                       0.00000000E+00,  0.00000000E+00,  0.00000000E+00,
                       0.00000000E+00])))

species(name='HX(21)',
        atoms='H:1 X:1',
        thermo=(NASA([298.00, 1000.00],
                     [-1.96702988E+00,  1.67920714E-02, -2.50314139E-05,
                       1.80485455E-08, -5.11491197E-12, -3.21277026E+03,
                       7.68211257E+00]),
                NASA([1000.00, 2000.00],
                     [ 2.71968546E+00, -1.07696656E-03,  2.00193294E-06,
                      -1.12865983E-09,  2.11269165E-13, -4.24701712E+03,
                      -1.52793490E+01])))

species(name='CO2X(22)',
        atoms='C:1 O:2 X:1',
        thermo=(NASA([100.00, 953.59],
                     [ 3.09269561E+00,  5.29271033E-03,  8.99475528E-06,
                      -1.67133168E-08,  7.04926858E-12, -5.24627112E+04,
                      -4.06898708E+00]),
                NASA([953.59, 5000.00],
                     [ 5.99801139E+00,  2.27488880E-03, -6.81114042E-07,
                       1.34437521E-10, -1.11513935E-14, -5.34336931E+04,
                      -2.01332666E+01])))

species(name='COX(23)',
        atoms='C:1 O:1 X:1',
        thermo=(NASA([298.00, 1000.00],
                     [ 2.70112272E+00,  8.76650166E-03, -1.29512418E-05,
                       1.04194594E-08, -3.39700490E-12, -3.49476634E+04,
                      -1.28730512E+01]),
                NASA([1000.00, 2000.00],
                     [ 5.52820880E+00, -1.52631254E-03,  2.79791895E-06,
                      -1.54550129E-09,  2.84523223E-13, -3.56231280E+04,
                      -2.69156979E+01])))

species(name='CH4X(24)',
        atoms='C:1 H:4 X:1',
        thermo=(NASA([298.00, 1000.00],
                     [ 5.26247002E+00, -7.42703413E-03,  3.36472336E-05,
                      -3.29401150E-08,  1.10259250E-11, -1.16038320E+04,
                      -1.00920541E+01]),
                NASA([1000.00, 2000.00],
                     [ 9.54981008E+00, -1.03719404E-02,  1.83183536E-05,
                      -9.63332916E-09,  1.70558531E-12, -1.32717208E+04,
                      -3.45374475E+01])))

species(name='OX(25)',
        atoms='O:1 X:1',
        thermo=(NASA([298.00, 1000.00],
                     [ 1.79722382E-01,  1.25453156E-02, -2.29924588E-05,
                       1.94187177E-08, -6.22414099E-12, -1.73402246E+04,
                      -2.22409728E+00]),
                NASA([1000.00, 2000.00],
                     [ 2.92050897E+00, -2.70455589E-04,  5.15610634E-07,
                      -2.93911213E-10,  5.54030466E-14, -1.78369003E+04,
                      -1.50940536E+01])))

species(name='CH2X(26)',
        atoms='C:1 H:2 X:1',
        thermo=(NASA([298.00, 1000.00],
                     [-2.26602367E+00,  2.92517765E-02, -4.32728797E-05,
                       3.30655723E-08, -9.93242641E-12, -2.23619445E+02,
                       8.22751288E+00]),
                NASA([1000.00, 2000.00],
                     [ 6.82572636E+00, -5.17192506E-03,  9.19551938E-06,
                      -4.87101486E-09,  8.67713091E-13, -2.26886621E+03,
                      -3.64410753E+01])))

species(name='CH3X(27)',
        atoms='C:1 H:3 X:1',
        thermo=(NASA([298.00, 1000.00],
                     [ 5.80099877E-01,  1.66399977E-02, -1.39164870E-05,
                       6.70631582E-09, -1.31079175E-12, -6.31046932E+03,
                      -7.57148375E-01]),
                NASA([1000.00, 2000.00],
                     [ 8.67869881E+00, -7.84238420E-03,  1.38956076E-05,
                      -7.33600190E-09,  1.30321431E-12, -8.45079729E+03,
                      -4.20966823E+01])))

species(name='CHX(28)',
        atoms='C:1 H:1 X:1',
        thermo=(NASA([298.00, 1000.00],
                     [-3.00950779E+00,  3.02193341E-02, -4.99546294E-05,
                       3.99478464E-08, -1.23021593E-11, -3.13353859E+03,
                       1.12314464E+01]),
                NASA([1000.00, 2000.00],
                     [ 4.88482023E+00, -2.70846119E-03,  4.84648118E-06,
                      -2.58513645E-09,  4.63180319E-13, -4.75082800E+03,
                      -2.67870735E+01])))

species(name='CX(29)',
        atoms='C:1 X:1',
        thermo=(NASA([298.00, 1000.00],
                     [-1.73430697E+00,  1.89855471E-02, -3.23563661E-05,
                       2.59269890E-08, -7.99102104E-12,  6.36385922E+03,
                       6.25445028E+00]),
                NASA([1000.00, 2000.00],
                     [ 2.82193241E+00, -6.61177416E-04,  1.24180431E-06,
                      -7.03993893E-10,  1.32276605E-13,  5.46467816E+03,
                      -1.55251271E+01])))

species(name='H2X(30)',
        atoms='H:2 X:1',
        thermo=(NASA([298.00, 1000.00],
                     [ 3.78935111E+00,  1.10148021E-03, -2.31320100E-06,
                       2.11937826E-09, -6.31350224E-13, -1.86700333E+03,
                      -1.00616465E+01]),
                NASA([1000.00, 2000.00],
                     [ 4.06700165E+00, -5.01780079E-04,  6.70738856E-07,
                      -1.79170942E-10,  8.86886631E-15, -1.89107687E+03,
                      -1.12621699E+01])))

species(name='OHX(31)',
        atoms='H:1 O:1 X:1',
        thermo=(NASA([298.00, 1000.00],
                     [ 1.07348583E+00,  1.72652206E-02, -3.17712232E-05,
                       2.71536568E-08, -8.69449304E-12, -1.96002909E+04,
                      -5.65622336E+00]),
                NASA([1000.00, 2000.00],
                     [ 5.01870328E+00, -1.35424298E-03,  2.27686310E-06,
                      -1.09407298E-09,  1.79396487E-13, -2.02979842E+04,
                      -2.41159621E+01])))

species(name='H2OX(32)',
        atoms='H:2 O:1 X:1',
        thermo=(NASA([298.00, 1000.00],
                     [ 2.53777266E+00,  9.45372010E-03, -1.41325664E-05,
                       1.16730945E-08, -3.67657640E-12, -3.27590463E+04,
                      -5.36548561E+00]),
                NASA([1000.00, 2000.00],
                     [ 5.84789466E+00, -3.31526816E-03,  5.62018785E-06,
                      -2.75864893E-09,  4.61279066E-13, -3.34885608E+04,
                      -2.15622699E+01])))

species(name='CHOX(33)',
        atoms='C:1 H:1 O:1 X:1',
        thermo=(NASA([298.00, 1000.00],
                     [ 1.94156388E+00,  1.30882912E-02, -1.34260003E-05,
                       7.97044677E-09, -2.06719711E-12, -2.80413711E+04,
                      -5.97802577E+00]),
                NASA([1000.00, 2000.00],
                     [ 7.49136303E+00, -4.18949199E-03,  7.54544313E-06,
                      -4.07863095E-09,  7.38421146E-13, -2.94916141E+04,
                      -3.42076640E+01])))

species(name='CO2X2(54)',
        atoms='C:1 O:2 X:2',
        thermo=(NASA([100.00, 924.21],
                     [ 3.12765009E+00, -5.99444178E-04,  3.64363002E-05,
                      -5.17518715E-08,  2.10864263E-11, -7.71711009E+04,
                      -1.62512067E+01]),
                NASA([924.21, 5000.00],
                     [ 8.66340598E+00, -1.93828097E-03,  1.89712813E-06,
                      -3.55963405E-10,  2.05496848E-14, -7.91604116E+04,
                      -4.77481635E+01])),
        size=2.0)

species(name='COX2(74)',
        atoms='C:1 O:1 X:2',
        thermo=(NASA([100.00, 907.89],
                     [ 3.29367568E+00, -4.89814370E-04,  2.05985081E-05,
                      -3.00759791E-08,  1.25798719E-11, -3.72015960E+04,
                      -1.73752598E+01]),
                NASA([907.89, 5000.00],
                     [ 6.63765609E+00, -2.14205554E-03,  1.71649720E-06,
                      -3.41188188E-10,  2.20462757E-14, -3.83478870E+04,
                      -3.61538600E+01])),
        size=2.0)

species(name='CHOX2(75)',
        atoms='C:1 H:1 O:1 X:2',
        thermo=(NASA([298.00, 1000.00],
                     [-7.63229192E-02,  2.34818104E-02, -3.17556441E-05,
                       2.22347561E-08, -6.25650920E-12, -2.44241519E+04,
                      -1.42351290E+00]),
                NASA([1000.00, 2000.00],
                     [ 7.61171587E+00, -3.81051175E-03,  6.86938717E-06,
                      -3.71585312E-09,  6.73352174E-13, -2.62393600E+04,
                      -3.96330591E+01])),
        size=2.0)

species(name='CHO2X(144)',
        atoms='C:1 H:1 O:2 X:1',
        thermo=(NASA([100.00, 943.39],
                     [ 3.72346674E+00, -4.28012082E-03,  5.09093399E-05,
                      -6.55352149E-08,  2.52487442E-11, -4.64655147E+04,
                      -7.82103248E+00]),
                NASA([943.39, 5000.00],
                     [ 8.73053719E+00,  9.99655620E-04,  3.63211219E-07,
                      -2.84965557E-11, -4.35634397E-15, -4.85899027E+04,
                      -3.79377399E+01])))

species(name='C2H3X(251)',
        atoms='C:2 H:3 X:1',
        thermo=(NASA([298.00, 1000.00],
                     [ 1.57603104E-01,  2.34293413E-02, -1.86683661E-05,
                       7.29234370E-09, -8.79008671E-13, -1.12523534E+04,
                      -1.73582278E+00]),
                NASA([1000.00, 2000.00],
                     [ 1.13050336E+01, -9.40622931E-03,  1.67935678E-05,
                      -8.96901500E-09,  1.60855621E-12, -1.42348165E+04,
                      -5.88363790E+01])))

species(name='SX(258)',
        atoms='C:2 H:2 X:2',
        thermo=(NASA([298.00, 1000.00],
                     [-1.68898057E+00,  3.52831263E-02, -4.97578493E-05,
                       3.62176199E-08, -1.04588699E-11,  2.14683932E+02,
                       6.75238906E+00]),
                NASA([1000.00, 2000.00],
                     [ 9.57180447E+00, -5.98074762E-03,  1.06737584E-05,
                      -5.68837233E-09,  1.01860349E-12, -2.37703001E+03,
                      -4.88869924E+01])),
        size=2.0)

species(name='CO2X3(282)',
        atoms='C:1 O:2 X:3',
        thermo=(NASA([100.00, 924.21],
                     [ 3.12765009E+00, -5.99444178E-04,  3.64363002E-05,
                      -5.17518715E-08,  2.10864263E-11, -7.71711009E+04,
                      -1.62512067E+01]),
                NASA([924.21, 5000.00],
                     [ 8.66340598E+00, -1.93828097E-03,  1.89712813E-06,
                      -3.55963405E-10,  2.05496848E-14, -7.91604116E+04,
                      -4.77481635E+01])),
        size=3.0)

#-------------------------------------------------------------------------------
# Reaction data
#-------------------------------------------------------------------------------
#  Reaction index: Chemkin #1; RMG #23
#  Library reaction: BurkeH2O2inArHe
#  Flux pairs: H2(6), H(12); H2(6), H(12);

# Reaction 1
three_body_reaction('H2(6) + M <=> H(12) + H(12) + M', [4.577000e+19, -1.4, 104.38],
                    efficiencies='Ar:0.0 CO(7):1.9 CO2(4):3.8 H2(6):2.5 H2O(5):12.0',
                    id='gas-1')
#  Reaction index: Chemkin #2; RMG #24
#  Library reaction: BurkeH2O2inArHe
#  Flux pairs: H2(6), H(12); Ar, Ar; Ar, H(12);

# Reaction 2
reaction('Ar + H2(6) <=> Ar + H(12) + H(12)', [5.840000e+18, -1.1, 104.38],
         id='gas-2')
#  Reaction index: Chemkin #3; RMG #21
#  Library reaction: BurkeH2O2inArHe
#  Flux pairs: OH(17), H2O(5); H2(6), H(12);

# Reaction 3
reaction('OH(17) + H2(6) <=> H(12) + H2O(5)', [2.160000e+08, 1.51, 3.43],
         id='gas-3')
#  Reaction index: Chemkin #4; RMG #30
#  Library reaction: BurkeH2O2inArHe
#  Flux pairs: H2O(5), H(12); H2O(5), OH(17);

# Reaction 4
three_body_reaction('H2O(5) + M <=> H(12) + OH(17) + M', [6.064000e+27, -3.322, 120.79],
                    efficiencies='CO(7):1.9 CO2(4):3.8 H2(6):3.0 H2O(5):0.0 N2:2.0 O2(3):1.5',
                    id='gas-4')
#  Reaction index: Chemkin #5; RMG #31
#  Library reaction: BurkeH2O2inArHe
#  Flux pairs: H2O(5), H2O(5); H2O(5), H(12); H2O(5), OH(17);

# Reaction 5
reaction('H2O(5) + H2O(5) <=> H(12) + OH(17) + H2O(5)', [1.006000e+26, -2.44, 120.18],
         id='gas-5')
#  Reaction index: Chemkin #6; RMG #45
#  Library reaction: BurkeH2O2inArHe
#  Flux pairs: OH(17), O2(3); OH(17), H2(6);

# Reaction 6
reaction('OH(17) + OH(17) <=> O2(3) + H2(6)', [2.000000e+11, 0.51, 50.5],
         id='gas-6')
#  Reaction index: Chemkin #7; RMG #50
#  Template reaction: R_Recombination
#  Flux pairs: CH3(10), CH4(2); H(12), CH4(2);
#  Matched reaction 57 H + CH3 <=> CH4 in R_Recombination/training
#  This reaction matched rate rule [Root_1R->H_N-2R->S_N-2CHNO->H_N-2CNO-inRing_N-2CNO->O]
#  family: R_Recombination

# Reaction 7
reaction('H(12) + CH3(10) <=> CH4(2)', [1.930000e+14, 0.0, 0.27],
         id='gas-7')