units(length='cm', time='s', quantity='mol', act_energy='kcal/mol')

ideal_gas(name='gas',
          elements="H D T C Ci O Oi N Ne Ar He Si S F Cl Br I X",
          species="""Ar          Ne          N2          CH4(2)
                     O2(3)       CO2(4)      H2O(5)      H2(6)
                     CO(7)       C2H6(8)     CH2O(9)     CH3(10)
                     C3H8(11)    H(12)       C2H5(13)    CH3OH(14)
                     HCO(15)     CH3CHO(16)  OH(17)      C2H4(18)
                     CH3OO(20)   C2H4(52)""",
          reactions='gas-*',
          transport='Mix',
          initial_state=state(temperature=300.0, pressure=OneAtm))

ideal_interface(name='surface1',
                elements="H D T C Ci O Oi N Ne Ar He Si S F Cl Br I X",
                species="""X(1)        HX(21)      CO2X(22)    COX(23)
                          CH4X(24)    OX(25)      CH2X(26)    CH3X(27)
                          CHX(28)     CX(29)      H2X(30)     OHX(31)
                          H2OX(32)    CHOX(33)    CH2OX(56)   CH3OX(60)
                          C2H4X(65)   C2H3X(67)   C2H3X(241)  C2H2X(288)
                          C2HOX(321)  C3H3X(322)  C3H4X(323)  C3H2X(324)
                          C3HX(325)   SX(326)     C4H4X(334)  C4H3X(338)
                          C5H2X(343)""",
                site_density=2.72e-09,
                phases="gas",
          reactions='surface1-*',
                initial_state=state(temperature=300.0, pressure=OneAtm))

#-------------------------------------------------------------------------------
# Element data
#-------------------------------------------------------------------------------

element(symbol='Ci', atomic_mass=13.003)
element(symbol='D', atomic_mass=2.014)
element(symbol='Oi', atomic_mass=17.999)
element(symbol='T', atomic_mass=3.016)
element(symbol='X', atomic_mass=195.083)
#-------------------------------------------------------------------------------
# Species data
#-------------------------------------------------------------------------------

species(name='Ar',
        atoms='Ar:1',
        thermo=(NASA([200.00, 1000.00],
                     [ 2.50000000E+00,  0.00000000E+00,  0.00000000E+00,
                       0.00000000E+00,  0.00000000E+00, -7.45375000E+02,
                       4.37967000E+00]),
                NASA([1000.00, 6000.00],
                     [ 2.50000000E+00,  0.00000000E+00,  0.00000000E+00,
                       0.00000000E+00,  0.00000000E+00, -7.45375000E+02,
                       4.37967000E+00])),
        transport=gas_transport(geom='atom',
                                diam=3.33,
                                well_depth=136.501))

species(name='Ne',
        atoms='Ne:1',
        thermo=(NASA([200.00, 1000.00],
                     [ 2.50000000E+00,  0.00000000E+00,  0.00000000E+00,
                       0.00000000E+00,  0.00000000E+00, -7.45375000E+02,
                       3.35532000E+00]),
                NASA([1000.00, 6000.00],
                     [ 2.50000000E+00,  0.00000000E+00,  0.00000000E+00,
                       0.00000000E+00,  0.00000000E+00, -7.45375000E+02,
                       3.35532000E+00])),
        transport=gas_transport(geom='atom',
                                diam=3.758,
                                well_depth=148.6))

species(name='N2',
        atoms='N:2',
        thermo=(NASA([200.00, 1000.00],
                     [ 3.53101000E+00, -1.23661000E-04, -5.02999000E-07,
                       2.43531000E-09, -1.40881000E-12, -1.04698000E+03,
                       2.96747000E+00]),
                NASA([1000.00, 6000.00],
                     [ 2.95258000E+00,  1.39690000E-03, -4.92632000E-07,
                       7.86010000E-11, -4.60755000E-15, -9.23949000E+02,
                       5.87189000E+00])),
        transport=gas_transport(geom='linear',
                                diam=3.621,
                                well_depth=97.53,
                                polar=1.76,
                                rot_relax=4.0))

species(name='CH4(2)',
        atoms='C:1 H:4',
        thermo=(NASA([100.00, 1084.13],
                     [ 4.20541194E+00, -5.35553558E-03,  2.51121985E-05,
                      -2.13761265E-08,  5.97517614E-12, -1.01619432E+04,
                      -9.21267377E-01]),
                NASA([1084.13, 5000.00],
                     [ 9.08284759E-01,  1.14540544E-02, -4.57172059E-06,
                       8.29187562E-10, -5.66311530E-14, -9.71998278E+03,
                       1.39929866E+01])),
        transport=gas_transport(geom='nonlinear',
                                diam=3.746,
                                well_depth=141.4,
                                polar=2.6,
                                rot_relax=13.0))

species(name='O2(3)',
        atoms='O:2',
        thermo=(NASA([100.00, 1074.55],
                     [ 3.53732306E+00, -1.21572374E-03,  5.31622715E-06,
                      -4.89449486E-09,  1.45847491E-12, -1.03858852E+03,
                       4.68367956E+00]),
                NASA([1074.55, 5000.00],
                     [ 3.15381732E+00,  1.67804947E-03, -7.69977495E-07,
                       1.51276220E-10, -1.08783036E-14, -1.04081576E+03,
                       6.16757806E+00])),
        transport=gas_transport(geom='linear',
                                diam=3.467,
                                well_depth=106.7))

species(name='CO2(4)',
        atoms='C:1 O:2',
        thermo=(NASA([100.00, 978.23],
                     [ 3.28083527E+00,  2.50196842E-03,  8.08151784E-06,
                      -1.20504991E-08,  4.66519201E-12, -4.84008299E+04,
                       6.00084740E+00]),
                NASA([978.23, 5000.00],
                     [ 4.67430878E+00,  2.60956959E-03, -9.85648902E-07,
                       1.95704154E-10, -1.49828179E-14, -4.89512313E+04,
                      -2.11096873E+00])),
        transport=gas_transport(geom='linear',
                                diam=3.941,
                                well_depth=195.201))

species(name='H2O(5)',
        atoms='H:2 O:1',
        thermo=(NASA([100.00, 1130.24],
                     [ 4.05763553E+00, -7.87932479E-04,  2.90876387E-06,
                      -1.47517542E-09,  2.12837837E-13, -3.02815866E+04,
                      -3.11362977E-01]),
                NASA([1130.24, 5000.00],
                     [ 2.84325256E+00,  2.75108205E-03, -7.81029590E-07,
                       1.07243203E-10, -5.79388693E-15, -2.99586137E+04,
                       5.91040795E+00])),
        transport=gas_transport(geom='nonlinear',
                                diam=2.641,
                                well_depth=809.102,
                                polar=1.76,
                                rot_relax=4.0))

species(name='H2(6)',
        atoms='H:2',
        thermo=(NASA([100.00, 1959.07],
                     [ 3.43536395E+00,  2.12711841E-04, -2.78628417E-07,
                       3.40269813E-10, -7.76038552E-14, -1.03135983E+03,
                      -3.90841666E+00]),
                NASA([1959.07, 5000.00],
                     [ 2.78818374E+00,  5.87617671E-04,  1.59021311E-07,
                      -5.52760891E-11,  4.34326921E-15, -5.96154838E+02,
                       1.12626481E-01])),
        transport=gas_transport(geom='linear',
                                diam=2.833,
                                well_depth=59.7))

species(name='CO(7)',
        atoms='C:1 O:1',
        thermo=(NASA([100.00, 1571.63],
                     [ 3.56838045E+00, -8.52130174E-04,  2.48918996E-06,
                      -1.56332160E-09,  3.13598612E-13, -1.42842550E+04,
                       3.57912002E+00]),
                NASA([1571.63, 5000.00],
                     [ 2.91304980E+00,  1.64660253E-03, -6.88627283E-07,
                       1.21040018E-10, -7.84038409E-15, -1.41808757E+04,
                       6.71055590E+00])),
        transport=gas_transport(geom='linear',
                                diam=3.69,
                                well_depth=91.7,
                                polar=1.76,
                                rot_relax=4.0))

species(name='C2H6(8)',
        atoms='C:2 H:6',
        thermo=(NASA([100.00, 1012.42],
                     [ 3.72238710E+00,  1.65090756E-03,  3.44173095E-05,
                      -3.76855068E-08,  1.24449316E-11, -1.15575899E+04,
                       4.68250079E+00]),
                NASA([1012.42, 5000.00],
                     [ 2.82850765E+00,  1.73040145E-02, -6.73331813E-06,
                       1.23741452E-09, -8.65671675E-14, -1.19978187E+04,
                       5.93797572E+00])),
        transport=gas_transport(geom='nonlinear',
                                diam=4.302,
                                well_depth=252.301,
                                rot_relax=1.5))

species(name='CH2O(9)',
        atoms='C:1 H:2 O:1',
        thermo=(NASA([100.00, 1070.44],
                     [ 4.12927411E+00, -4.08396791E-03,  2.03227805E-05,
                      -1.83522333E-08,  5.37967780E-12, -1.44294638E+04,
                       3.22419869E+00]),
                NASA([1070.44, 5000.00],
                     [ 2.21174574E+00,  7.94262147E-03, -3.34191055E-06,
                       6.28466749E-10, -4.40427629E-14, -1.42974549E+04,
                       1.13047778E+01])),
        transport=gas_transport(geom='nonlinear',
                                diam=3.59,
                                well_depth=498.002,
                                rot_relax=2.0))

species(name='CH3(10)',
        atoms='C:1 H:3',
        thermo=(NASA([100.00, 697.60],
                     [ 3.96043210E+00,  5.92926328E-04,  8.78580361E-06,
                      -9.88037483E-09,  3.63237870E-12,  1.64218817E+04,
                       3.39861655E-01]),
                NASA([697.60, 5000.00],
                     [ 3.09511293E+00,  5.55429649E-03, -1.88158705E-06,
                       3.13334619E-10, -2.05194830E-14,  1.65426189E+04,
                       4.20297310E+00])),
        transport=gas_transport(geom='nonlinear',
                                diam=3.8,
                                well_depth=144.001))

species(name='C3H8(11)',
        atoms='C:3 H:8',
        thermo=(NASA([100.00, 990.00],
                     [ 3.06335244E+00,  1.29215671E-02,  3.47028840E-05,
                      -4.70940915E-08,  1.71381876E-11, -1.43905785E+04,
                       1.07835922E+01]),
                NASA([990.00, 5000.00],
                     [ 5.60443667E+00,  2.19528167E-02, -8.22077046E-06,
                       1.50103150E-09, -1.05634659E-13, -1.58394190E+04,
                      -6.22643703E+00])),
        transport=gas_transport(geom='nonlinear',
                                diam=4.982,
                                well_depth=266.801,
                                rot_relax=1.0))

species(name='H(12)',
        atoms='H:1',
        thermo=(NASA([100.00, 4762.74],
                     [ 2.50000000E+00, -1.87769028E-11,  2.35957382E-14,
                      -9.62803665E-18,  1.20727680E-21,  2.54742178E+04,
                      -4.44972910E-01]),
                NASA([4762.74, 5000.00],
                     [ 2.87626762E+00, -3.12580154E-04,  9.73654773E-08,
                      -1.34776059E-11,  6.99515521E-16,  2.51119154E+04,
                      -2.85161700E+00])),
        transport=gas_transport(geom='atom',
                                diam=2.05,
                                well_depth=145.0))

species(name='C2H5(13)',
        atoms='C:2 H:5',
        thermo=(NASA([100.00, 1006.87],
                     [ 3.68745357E+00,  3.06903791E-03,  2.55868128E-05,
                      -2.94070081E-08,  9.94048528E-12,  1.31153653E+04,
                       6.96689090E+00]),
                NASA([1006.87, 5000.00],
                     [ 3.53785992E+00,  1.37310792E-02, -5.29559790E-06,
                       9.71471434E-10, -6.80280032E-14,  1.26351580E+04,
                       5.15537972E+00])),
        transport=gas_transport(geom='nonlinear',
                                diam=4.302,
                                well_depth=252.301,
                                rot_relax=1.5))

species(name='CH3OH(14)',
        atoms='C:1 H:4 O:1',
        thermo=(NASA([100.00, 1035.75],
                     [ 3.84006499E+00,  1.38238646E-03,  1.91668353E-05,
                      -2.01570143E-08,  6.39108434E-12, -2.56083088E+04,
                       5.90977116E+00]),
                NASA([1035.75, 5000.00],
                     [ 2.79182946E+00,  1.15828079E-02, -4.51553221E-06,
                       8.21209736E-10, -5.67065748E-14, -2.57211616E+04,
                       9.41069220E+00])),
        transport=gas_transport(geom='nonlinear',
                                diam=3.626,
                                well_depth=481.802,
                                rot_relax=1.0))

species(name='HCO(15)',
        atoms='C:1 H:1 O:1',
        thermo=(NASA([100.00, 1112.09],
                     [ 4.05936669E+00, -1.73849429E-03,  9.14990893E-06,
                      -8.01143425E-09,  2.25741935E-12,  3.84377606E+03,
                       3.32448757E+00]),
                NASA([1112.09, 5000.00],
                     [ 3.05134504E+00,  4.11709183E-03, -1.75587970E-06,
                       3.29306373E-10, -2.29176928E-14,  3.93008669E+03,
                       7.67473832E+00])),
        transport=gas_transport(geom='nonlinear',
                                diam=3.59,
                                well_depth=498.002))

species(name='CH3CHO(16)',
        atoms='C:2 H:4 O:1',
        thermo=(NASA([100.00, 1028.81],
                     [ 3.57991902E+00,  5.18989319E-03,  2.26895459E-05,
                      -2.73740033E-08,  9.28468747E-12, -2.13697372E+04,
                       8.96973342E+00]),
                NASA([1028.81, 5000.00],
                     [ 4.08566191E+00,  1.39060811E-02, -5.59367978E-06,
                       1.04608750E-09, -7.38734269E-14, -2.20391443E+04,
                       3.76788528E+00])),
        transport=gas_transport(geom='nonlinear',
                                diam=3.97,
                                well_depth=436.001,
                                rot_relax=2.0))

species(name='OH(17)',
        atoms='H:1 O:1',
        thermo=(NASA([100.00, 1145.75],
                     [ 3.51456804E+00,  2.92773479E-05, -5.32163313E-07,
                       1.01949022E-09, -3.85945153E-13,  3.41425420E+03,
                       2.10434883E+00]),
                NASA([1145.75, 5000.00],
                     [ 3.07193980E+00,  6.04015715E-04, -1.39783027E-08,
                      -2.13446074E-11,  2.48065638E-15,  3.57938677E+03,
                       4.57800016E+00])),
        transport=gas_transport(geom='linear',
                                diam=2.75,
                                well_depth=80.0))

species(name='C2H4(18)',
        atoms='C:2 H:4',
        thermo=(NASA([100.00, 979.36],
                     [ 3.97470870E+00, -4.75835394E-03,  4.16780569E-05,
                      -4.51388255E-08,  1.54222902E-11,  4.91540777E+03,
                       3.62433466E+00]),
                NASA([979.36, 5000.00],
                     [ 3.55663371E+00,  1.10626992E-02, -4.17016347E-06,
                       7.85580297E-10, -5.70055449E-14,  4.32045336E+03,
                       2.17703949E+00])),
        transport=gas_transport(geom='nonlinear',
                                diam=3.971,
                                well_depth=280.801,
                                rot_relax=1.5))

species(name='CH3OO(20)',
        atoms='C:1 H:3 O:2',
        thermo=(NASA([100.00, 1031.34],
                     [ 3.58601205E+00,  6.15344516E-03,  1.33270727E-05,
                      -1.76583359E-08,  6.13218614E-12,  2.48233413E+02,
                       9.74094772E+00]),
                NASA([1031.34, 5000.00],
                     [ 4.35020649E+00,  1.07183549E-02, -4.26216643E-06,
                       7.89582007E-10, -5.53849355E-14, -3.09803160E+02,
                       4.08937440E+00])),
        transport=gas_transport(geom='nonlinear',
                                diam=3.69,
                                well_depth=417.0,
                                dipole=1.7,
                                rot_relax=2.0))

species(name='C2H4(52)',
        atoms='C:2 H:4',
        thermo=(NASA([100.00, 846.11],
                     [ 3.36869910E+00,  1.64231472E-02, -2.16499620E-05,
                       2.18221894E-08, -8.70152870E-12,  4.28682835E+04,
                       2.18539054E+01]),
                NASA([846.11, 5000.00],
                     [ 2.62343270E+00,  1.38429435E-02, -6.25542845E-06,
                       1.16703883E-09, -7.95363055E-14,  4.32128739E+04,
                       2.66158993E+01])),
        transport=gas_transport(geom='nonlinear',
                                diam=4.443,
                                well_depth=110.7))

species(name='X(1)',
        atoms='X:1',
        thermo=(NASA([100.00, 1554.81],
                     [ 7.10134229E-03, -4.25614410E-05,  8.98519485E-08,
                      -7.80181004E-11,  2.32461701E-14, -8.76099090E-01,
                      -3.11209254E-02]),
                NASA([1554.81, 5000.00],
                     [ 1.60301482E-01, -2.52237676E-04,  1.14182424E-07,
                      -1.21474113E-11,  3.85808919E-16, -7.08109168E+01,
                      -9.09536736E-01])))

species(name='HX(21)',
        atoms='H:1 X:1',
        thermo=(NASA([100.00, 952.91],
                     [-3.80965716E-01,  5.47229033E-03,  2.60911590E-06,
                      -9.64960366E-09,  4.63946033E-12, -1.16013509E+03,
                       1.01725644E+00]),
                NASA([952.91, 5000.00],
                     [ 2.80339744E+00, -5.41048540E-04,  4.99508866E-07,
                      -7.54965761E-11,  3.06774129E-15, -2.10088488E+03,
                      -1.59436837E+01])))

species(name='CO2X(22)',
        atoms='C:1 O:2 X:1',
        thermo=(NASA([100.00, 953.59],
                     [ 3.09269561E+00,  5.29271033E-03,  8.99475528E-06,
                      -1.67133168E-08,  7.04926858E-12, -5.24627112E+04,
                      -4.06898708E+00]),
                NASA([953.59, 5000.00],
                     [ 5.99801139E+00,  2.27488880E-03, -6.81114042E-07,
                       1.34437521E-10, -1.11513935E-14, -5.34336931E+04,
                      -2.01332666E+01])))

species(name='COX(23)',
        atoms='C:1 O:1 X:1',
        thermo=(NASA([100.00, 891.31],
                     [-1.38220492E+00,  3.75313467E-02, -8.29789341E-05,
                       8.09745725E-08, -2.85491668E-11, -2.87153474E+04,
                       4.35470172E+00]),
                NASA([891.31, 5000.00],
                     [ 1.38106885E+00,  8.05690339E-03, -4.64291970E-06,
                       8.91129769E-10, -5.90013911E-14, -2.85297406E+04,
                      -4.85408694E+00])))

species(name='CH4X(24)',
        atoms='C:1 H:4 X:1',
        thermo=(NASA([100.00, 886.29],
                     [-1.38686953E+00,  4.00449920E-02, -8.37914768E-05,
                       8.75647570E-08, -3.27874255E-11, -1.09112187E+04,
                       1.78810872E+01]),
                NASA([886.29, 5000.00],
                     [-2.16849043E+00,  1.99494416E-02, -9.80014944E-06,
                       1.83536981E-09, -1.22522245E-13, -9.84485120E+03,
                       2.67918695E+01])))

species(name='OX(25)',
        atoms='O:1 X:1',
        thermo=(NASA([100.00, 888.26],
                     [-7.59010605E-01,  1.89868186E-02, -3.82472548E-05,
                       3.43556678E-08, -1.13973560E-11, -3.07465948E+04,
                       1.76016526E+00]),
                NASA([888.26, 5000.00],
                     [ 1.89893001E+00,  2.03296518E-03, -1.19977223E-06,
                       2.32682221E-10, -1.53509598E-14, -3.10221383E+04,
                      -9.64100628E+00])))

species(name='CH2X(26)',
        atoms='C:1 H:2 X:1',
        thermo=(NASA([100.00, 1199.83],
                     [-1.02006579E+00,  2.03778537E-02, -2.17291038E-05,
                       1.15868509E-08, -2.38469875E-12,  5.45011482E+03,
                       2.99160402E+00]),
                NASA([1199.83, 5000.00],
                     [ 3.89285578E+00,  3.99892111E-03, -1.25227841E-06,
                       2.09081117E-10, -1.39642283E-14,  4.27119559E+03,
                      -2.16053760E+01])))

species(name='CH3X(27)',
        atoms='C:1 H:3 X:1',
        thermo=(NASA([100.00, 848.30],
                     [-1.21090759E+00,  2.92391022E-02, -4.49012428E-05,
                       3.86011813E-08, -1.30362027E-11, -3.21909614E+03,
                       6.80940675E+00]),
                NASA([848.30, 5000.00],
                     [ 1.62291424E+00,  1.12987170E-02, -5.08316318E-06,
                       9.46832148E-10, -6.42884322E-14, -3.53516329E+03,
                      -5.42504109E+00])))

species(name='CHX(28)',
        atoms='C:1 H:1 X:1',
        thermo=(NASA([100.00, 1596.80],
                     [-9.66377750E-01,  1.63179244E-02, -1.75392905E-05,
                       8.64101594E-09, -1.55503122E-12,  5.34896793E+03,
                       2.54983314E+00]),
                NASA([1596.80, 5000.00],
                     [ 4.21489896E+00,  2.18260820E-04,  5.15723693E-07,
                      -1.20813854E-10,  8.35430932E-15,  4.09210662E+03,
                      -2.36259664E+01])))

species(name='CX(29)',
        atoms='C:1 X:1',
        thermo=(NASA([100.00, 1401.15],
                     [-6.04854751E-01,  1.10908100E-02, -1.34368951E-05,
                       7.18231711E-09, -1.40682933E-12,  1.78492996E+04,
                       1.48479417E+00]),
                NASA([1401.15, 5000.00],
                     [ 3.08072047E+00, -6.87405372E-04,  5.17558053E-07,
                      -9.72952765E-11,  6.24189569E-15,  1.69398447E+04,
                      -1.70989087E+01])))

species(name='H2X(30)',
        atoms='H:2 X:1',
        thermo=(NASA([100.00, 911.31],
                     [-1.27862849E+00,  3.68017767E-02, -8.90325928E-05,
                       8.91173443E-08, -3.14530439E-11, -1.33397422E+03,
                       1.13162731E+01]),
                NASA([911.31, 5000.00],
                     [ 6.45802829E-01,  6.69533834E-03, -3.82673198E-06,
                       7.04682912E-10, -4.40988894E-14, -7.85325770E+02,
                       7.14537702E+00])))

species(name='OHX(31)',
        atoms='H:1 O:1 X:1',
        thermo=(NASA([100.00, 914.58],
                     [-1.29514698E+00,  3.36477486E-02, -7.07722520E-05,
                       6.54321668E-08, -2.19413208E-11, -2.61008835E+04,
                       4.37628387E+00]),
                NASA([914.58, 5000.00],
                     [ 2.43518590E+00,  4.64640063E-03, -2.40011240E-06,
                       4.26408546E-10, -2.60655383E-14, -2.62526453E+04,
                      -1.03866667E+01])))

species(name='H2OX(32)',
        atoms='H:2 O:1 X:1',
        thermo=(NASA([100.00, 912.85],
                     [-1.34340087E+00,  3.66695475E-02, -7.99480478E-05,
                       7.74124900E-08, -2.68665206E-11, -3.23490305E+04,
                       1.10237649E+01]),
                NASA([912.85, 5000.00],
                     [ 1.12158774E+00,  8.16639512E-03, -4.02358184E-06,
                       7.20421135E-10, -4.51442539E-14, -3.20615229E+04,
                       3.39616437E+00])))

species(name='CHOX(33)',
        atoms='C:1 H:1 O:1 X:1',
        thermo=(NASA([100.00, 873.21],
                     [-1.43681126E+00,  3.69245510E-02, -7.17912045E-05,
                       6.73543951E-08, -2.35183663E-11, -2.47840107E+04,
                       8.27567390E+00]),
                NASA([873.21, 5000.00],
                     [ 1.83283901E+00,  1.00778087E-02, -5.28529296E-06,
                       1.01351021E-09, -6.85176017E-14, -2.49025163E+04,
                      -4.46412817E+00])))

species(name='CH2OX(56)',
        atoms='C:1 H:2 O:1 X:1',
        thermo=(NASA([100.00, 879.32],
                     [-1.46695863E+00,  4.13870338E-02, -8.87611105E-05,
                       9.10103141E-08, -3.36603335E-11, -2.03002415E+04,
                       1.57177943E+01]),
                NASA([879.32, 5000.00],
                     [-8.92954341E-01,  1.66196974E-02, -8.71598970E-06,
                       1.66817352E-09, -1.12504529E-13, -1.95446241E+04,
                       1.78929783E+01])))

species(name='CH3OX(60)',
        atoms='C:1 H:3 O:1 X:1',
        thermo=(NASA([100.00, 857.66],
                     [-1.68422476E+00,  4.28023961E-02, -7.50784539E-05,
                       7.03683588E-08, -2.50920639E-11, -2.67692046E+04,
                       7.76424217E+00]),
                NASA([857.66, 5000.00],
                     [ 1.14794358E+00,  1.71344709E-02, -8.39641041E-06,
                       1.59808581E-09, -1.08976215E-13, -2.67967774E+04,
                      -2.79303859E+00])))

species(name='C2H4X(65)',
        atoms='C:2 H:4 X:1',
        thermo=(NASA([100.00, 922.91],
                     [-1.51744788E+00,  3.54365039E-02, -3.81057992E-05,
                       2.35709531E-08, -6.09817570E-12,  3.41648867E+02,
                       5.77184655E+00]),
                NASA([922.91, 5000.00],
                     [ 2.83445606E+00,  1.65755907E-02, -7.45248756E-06,
                       1.42932440E-09, -1.00637873E-13, -4.61666123E+02,
                      -1.48746217E+01])))

species(name='C2H3X(67)',
        atoms='C:2 H:3 X:1',
        thermo=(NASA([100.00, 928.60],
                     [ 3.83104790E+00, -8.76552347E-03,  6.98020577E-05,
                      -8.68057490E-08,  3.33258391E-11, -4.95549804E+02,
                      -1.81156637E+01]),
                NASA([928.60, 5000.00],
                     [ 8.78013057E+00,  1.92570025E-03,  8.25400822E-07,
                      -1.63648361E-10,  5.70878943E-15, -2.79477808E+03,
                      -4.90565358E+01])))

species(name='C2H3X(241)',
        atoms='C:2 H:3 X:1',
        thermo=(NASA([100.00, 808.66],
                     [-1.45265162E+00,  3.42707179E-02, -4.40842650E-05,
                       3.22607928E-08, -9.67625542E-12, -2.37138934E+03,
                       5.13282792E+00]),
                NASA([808.66, 5000.00],
                     [ 2.64802812E+00,  1.39871189E-02, -6.46022334E-06,
                       1.24353788E-09, -8.72725994E-14, -3.03460791E+03,
                      -1.37797384E+01])))

species(name='C2H2X(288)',
        atoms='C:2 H:2 X:1',
        thermo=(NASA([100.00, 904.29],
                     [-1.76159555E+00,  4.48458792E-02, -8.74228677E-05,
                       7.97490148E-08, -2.67941434E-11,  2.15192255E+04,
                       1.62193571E+01]),
                NASA([904.29, 5000.00],
                     [ 2.96583217E+00,  9.38700022E-03, -4.47403331E-06,
                       8.06994469E-10, -5.16668140E-14,  2.12590516E+04,
                      -2.82328312E+00])))

species(name='C2HOX(321)',
        atoms='C:2 H:1 O:1 X:1',
        thermo=(NASA([100.00, 939.56],
                     [ 2.64369597E+00,  1.57651039E-02, -9.18912940E-06,
                      -2.51069107E-09,  2.98776546E-12, -9.87805029E+03,
                      -6.77476613E+00]),
                NASA([939.56, 5000.00],
                     [ 7.46975453E+00,  2.84089368E-03, -7.23840382E-07,
                       1.16598178E-10, -8.60710154E-15, -1.11213438E+04,
                      -3.15471315E+01])))

species(name='C3H3X(322)',
        atoms='C:3 H:3 X:1',
        thermo=(NASA([100.00, 934.09],
                     [ 3.23859027E+00,  8.04508489E-03,  3.10703407E-05,
                      -4.83004422E-08,  1.97689384E-11,  2.05879660E+04,
                      -7.80419295E+00]),
                NASA([934.09, 5000.00],
                     [ 8.89078343E+00,  6.01848960E-03, -1.28853162E-06,
                       2.11593339E-10, -1.74726226E-14,  1.85645097E+04,
                      -3.98663309E+01])))

species(name='C3H4X(323)',
        atoms='C:3 H:4 X:1',
        thermo=(NASA([100.00, 1140.06],
                     [ 2.94078773E+00,  2.05956555E-02, -1.03846507E-05,
                       1.19858793E-09,  5.04231825E-13,  1.93749851E+04,
                       3.75868288E+00]),
                NASA([1140.06, 5000.00],
                     [ 6.30768229E+00,  1.25670670E-02, -4.80054413E-06,
                       8.44892476E-10, -5.67010185E-14,  1.83613523E+04,
                      -1.40046006E+01])))

species(name='C3H2X(324)',
        atoms='C:3 H:2 X:1',
        thermo=(NASA([100.00, 918.15],
                     [ 2.92758112E+00,  1.90719674E-02, -6.76670069E-06,
                      -9.48281082E-09,  6.42104271E-12,  2.28071602E+04,
                      -1.13823451E+01]),
                NASA([918.15, 5000.00],
                     [ 9.24195965E+00,  3.41315797E-03, -5.44746823E-07,
                       5.68366203E-11, -4.12473262E-15,  2.11481610E+04,
                      -4.40264501E+01])))

species(name='C3HX(325)',
        atoms='C:3 H:1 X:1',
        thermo=(NASA([100.00, 896.08],
                     [ 3.82896090E+00, -7.37839401E-03,  5.93425677E-05,
                      -7.81648699E-08,  3.17121321E-11,  1.77678365E+04,
                      -1.08872413E+01]),
                NASA([896.08, 5000.00],
                     [ 9.42348679E+00, -3.33185470E-03,  3.99056456E-06,
                      -8.42531676E-10,  5.64766968E-14,  1.56001246E+04,
                      -4.37647484E+01])))

species(name='SX(326)',
        atoms='C:2 H:2 O:1 X:1',
        thermo=(NASA([100.00, 920.99],
                     [ 3.28568832E+00,  9.68305157E-03,  1.38928544E-05,