units(length='cm', time='s', quantity='mol', act_energy='kcal/mol')

ideal_gas(name='gas',
          elements="H D T C Ci O Oi N Ne Ar He Si S F Cl Br I X",
          species="""Ar          Ne          N2          CH4(2)
                     O2(3)       CO2(4)      H2O(5)      H2(6)
                     CO(7)       C2H6(8)     CH2O(9)     CH3(10)
                     C3H8(11)    H(12)       C2H5(13)    CH3OH(14)
                     HCO(15)     CH3CHO(16)  OH(17)      C2H4(18)
                     CH3OO(20)   C2H4(52)""",
          reactions='gas-*',
          transport='Mix',
          initial_state=state(temperature=300.0, pressure=OneAtm))

ideal_interface(name='surface1',
                elements="H D T C Ci O Oi N Ne Ar He Si S F Cl Br I X",
                species="""X(1)        HX(21)      CO2X(22)    COX(23)
                          CH4X(24)    OX(25)      CH2X(26)    CH3X(27)
                          CHX(28)     CX(29)      H2X(30)     OHX(31)
                          H2OX(32)    CHOX(33)    CH2OX(56)   CH3OX(60)
                          CHOX(231)   C2H3X(241)""",
                site_density=2.72e-09,
                phases="gas",
          reactions='surface1-*',
                initial_state=state(temperature=300.0, pressure=OneAtm))

#-------------------------------------------------------------------------------
# Element data
#-------------------------------------------------------------------------------

element(symbol='Ci', atomic_mass=13.003)
element(symbol='D', atomic_mass=2.014)
element(symbol='Oi', atomic_mass=17.999)
element(symbol='T', atomic_mass=3.016)
element(symbol='X', atomic_mass=195.083)
#-------------------------------------------------------------------------------
# Species data
#-------------------------------------------------------------------------------

species(name='Ar',
        atoms='Ar:1',
        thermo=(NASA([200.00, 1000.00],
                     [ 2.50000000E+00,  0.00000000E+00,  0.00000000E+00,
                       0.00000000E+00,  0.00000000E+00, -7.45375000E+02,
                       4.37967000E+00]),
                NASA([1000.00, 6000.00],
                     [ 2.50000000E+00,  0.00000000E+00,  0.00000000E+00,
                       0.00000000E+00,  0.00000000E+00, -7.45375000E+02,
                       4.37967000E+00])),
        transport=gas_transport(geom='atom',
                                diam=3.33,
                                well_depth=136.501))

species(name='Ne',
        atoms='Ne:1',
        thermo=(NASA([200.00, 1000.00],
                     [ 2.50000000E+00,  0.00000000E+00,  0.00000000E+00,
                       0.00000000E+00,  0.00000000E+00, -7.45375000E+02,
                       3.35532000E+00]),
                NASA([1000.00, 6000.00],
                     [ 2.50000000E+00,  0.00000000E+00,  0.00000000E+00,
                       0.00000000E+00,  0.00000000E+00, -7.45375000E+02,
                       3.35532000E+00])),
        transport=gas_transport(geom='atom',
                                diam=3.758,
                                well_depth=148.6))

species(name='N2',
        atoms='N:2',
        thermo=(NASA([200.00, 1000.00],
                     [ 3.53101000E+00, -1.23661000E-04, -5.02999000E-07,
                       2.43531000E-09, -1.40881000E-12, -1.04698000E+03,
                       2.96747000E+00]),
                NASA([1000.00, 6000.00],
                     [ 2.95258000E+00,  1.39690000E-03, -4.92632000E-07,
                       7.86010000E-11, -4.60755000E-15, -9.23949000E+02,
                       5.87189000E+00])),
        transport=gas_transport(geom='linear',
                                diam=3.621,
                                well_depth=97.53,
                                polar=1.76,
                                rot_relax=4.0))

species(name='CH4(2)',
        atoms='C:1 H:4',
        thermo=(NASA([100.00, 1084.12],
                     [ 4.20541378E+00, -5.35555685E-03,  2.51122700E-05,
                      -2.13762147E-08,  5.97521149E-12, -1.01619432E+04,
                      -9.21274032E-01]),
                NASA([1084.12, 5000.00],
                     [ 9.08274117E-01,  1.14540720E-02, -4.57173047E-06,
                       8.29189859E-10, -5.66313411E-14, -9.71997811E+03,
                       1.39930469E+01])),
        transport=gas_transport(geom='nonlinear',
                                diam=3.746,
                                well_depth=141.4,
                                polar=2.6,
                                rot_relax=13.0))

species(name='O2(3)',
        atoms='O:2',
        thermo=(NASA([100.00, 1074.56],
                     [ 3.53732118E+00, -1.21570202E-03,  5.31615358E-06,
                      -4.89440364E-09,  1.45843807E-12, -1.03858843E+03,
                       4.68368633E+00]),
                NASA([1074.56, 5000.00],
                     [ 3.15382774E+00,  1.67803224E-03, -7.69967755E-07,
                       1.51273954E-10, -1.08781177E-14, -1.04082031E+03,
                       6.16751905E+00])),
        transport=gas_transport(geom='linear',
                                diam=3.467,
                                well_depth=106.7))

species(name='CO2(4)',
        atoms='C:1 O:2',
        thermo=(NASA([100.00, 978.22],
                     [ 3.28084123E+00,  2.50189639E-03,  8.08177735E-06,
                      -1.20508449E-08,  4.66534301E-12, -4.84008302E+04,
                       6.00082616E+00]),
                NASA([978.22, 5000.00],
                     [ 4.67428652E+00,  2.60960766E-03, -9.85670949E-07,
                       1.95709378E-10, -1.49832521E-14, -4.89512220E+04,
                      -2.11084354E+00])),
        transport=gas_transport(geom='linear',
                                diam=3.941,
                                well_depth=195.201))

species(name='H2O(5)',
        atoms='H:2 O:1',
        thermo=(NASA([100.00, 1130.24],
                     [ 4.05763582E+00, -7.87935662E-04,  2.90877429E-06,
                      -1.47518785E-09,  2.12842652E-13, -3.02815866E+04,
                      -3.11363998E-01]),
                NASA([1130.24, 5000.00],
                     [ 2.84325062E+00,  2.75108520E-03, -7.81031348E-07,
                       1.07243608E-10, -5.79391987E-15, -2.99586128E+04,
                       5.91041898E+00])),
        transport=gas_transport(geom='nonlinear',
                                diam=2.641,
                                well_depth=809.102,
                                polar=1.76,
                                rot_relax=4.0))

species(name='H2(6)',
        atoms='H:2',
        thermo=(NASA([100.00, 1959.07],
                     [ 3.43536403E+00,  2.12711126E-04, -2.78626796E-07,
                       3.40268542E-10, -7.76035403E-14, -1.03135984E+03,
                      -3.90841698E+00]),
                NASA([1959.07, 5000.00],
                     [ 2.78817514E+00,  5.87628848E-04,  1.59016078E-07,
                      -5.52750390E-11,  4.34319267E-15, -5.96149762E+02,
                       1.12677478E-01])),
        transport=gas_transport(geom='linear',
                                diam=2.833,
                                well_depth=59.7))

species(name='CO(7)',
        atoms='C:1 O:1',
        thermo=(NASA([100.00, 1571.65],
                     [ 3.56837933E+00, -8.52119359E-04,  2.48916154E-06,
                      -1.56329526E-09,  3.13590826E-13, -1.42842549E+04,
                       3.57912422E+00]),
                NASA([1571.65, 5000.00],
                     [ 2.91308532E+00,  1.64655185E-03, -6.88601689E-07,
                       1.21034554E-10, -7.83996529E-15, -1.41808944E+04,
                       6.71034902E+00])),
        transport=gas_transport(geom='linear',
                                diam=3.69,
                                well_depth=91.7,
                                polar=1.76,
                                rot_relax=4.0))

species(name='C2H6(8)',
        atoms='C:2 H:6',
        thermo=(NASA([100.00, 1012.42],
                     [ 3.72239290E+00,  1.65083859E-03,  3.44175524E-05,
                      -3.76858221E-08,  1.24450654E-11, -1.15575901E+04,
                       4.68248004E+00]),
                NASA([1012.42, 5000.00],
                     [ 2.82848264E+00,  1.73040567E-02, -6.73334238E-06,
                       1.23742023E-09, -8.65676398E-14, -1.19978081E+04,
                       5.93811671E+00])),
        transport=gas_transport(geom='nonlinear',
                                diam=4.302,
                                well_depth=252.301,
                                rot_relax=1.5))

species(name='CH2O(9)',
        atoms='C:1 H:2 O:1',
        thermo=(NASA([100.00, 1070.44],
                     [ 4.12927419E+00, -4.08396883E-03,  2.03227836E-05,
                      -1.83522372E-08,  5.37967936E-12, -1.44294638E+04,
                       3.22419840E+00]),
                NASA([1070.44, 5000.00],
                     [ 2.21174531E+00,  7.94262219E-03, -3.34191096E-06,
                       6.28466843E-10, -4.40427707E-14, -1.42974547E+04,
                       1.13047802E+01])),
        transport=gas_transport(geom='nonlinear',
                                diam=3.59,
                                well_depth=498.002,
                                rot_relax=2.0))

species(name='CH3(10)',
        atoms='C:1 H:3',
        thermo=(NASA([100.00, 697.64],
                     [ 3.96043172E+00,  5.92930978E-04,  8.78578665E-06,
                      -9.88035126E-09,  3.63236754E-12,  1.64218817E+04,
                       3.39863015E-01]),
                NASA([697.64, 5000.00],
                     [ 3.09511256E+00,  5.55429727E-03, -1.88158757E-06,
                       3.13334755E-10, -2.05194952E-14,  1.65426190E+04,
                       4.20297507E+00])),
        transport=gas_transport(geom='nonlinear',
                                diam=3.8,
                                well_depth=144.001))

species(name='C3H8(11)',
        atoms='C:3 H:8',
        thermo=(NASA([100.00, 989.99],
                     [ 3.06336227E+00,  1.29214489E-02,  3.47033067E-05,
                      -4.70946496E-08,  1.71384288E-11, -1.43905789E+04,
                       1.07835571E+01]),
                NASA([989.99, 5000.00],
                     [ 5.60439806E+00,  2.19528825E-02, -8.22080843E-06,
                       1.50104048E-09, -1.05635403E-13, -1.58394028E+04,
                      -6.22621966E+00])),
        transport=gas_transport(geom='nonlinear',
                                diam=4.982,
                                well_depth=266.801,
                                rot_relax=1.0))

species(name='H(12)',
        atoms='H:1',
        thermo=(NASA([100.00, 4996.86],
                     [ 2.50000000E+00,  4.30732087E-14, -5.28912510E-17,
                       2.10457488E-20, -2.57139738E-24,  2.54742178E+04,
                      -4.44972896E-01]),
                NASA([4996.86, 5000.00],
                     [-4.86862231E+01,  1.90728012E-02,  8.49269033E-07,
                      -9.90485659E-10,  9.34419177E-14,  1.03971294E+05,
                       3.56208045E+02])),
        transport=gas_transport(geom='atom',
                                diam=2.05,
                                well_depth=145.0))

species(name='C2H5(13)',
        atoms='C:2 H:5',
        thermo=(NASA([100.00, 1006.87],
                     [ 3.68745407E+00,  3.06903196E-03,  2.55868339E-05,
                      -2.94070355E-08,  9.94049696E-12,  1.31153653E+04,
                       6.96688911E+00]),
                NASA([1006.87, 5000.00],
                     [ 3.53785782E+00,  1.37310828E-02, -5.29559994E-06,
                       9.71471917E-10, -6.80280432E-14,  1.26351588E+04,
                       5.15539157E+00])),
        transport=gas_transport(geom='nonlinear',
                                diam=4.302,
                                well_depth=252.301,
                                rot_relax=1.5))

species(name='CH3OH(14)',
        atoms='C:1 H:4 O:1',
        thermo=(NASA([100.00, 1035.74],
                     [ 3.84006767E+00,  1.38235488E-03,  1.91669449E-05,
                      -2.01571540E-08,  6.39114253E-12, -2.56083089E+04,
                       5.90976153E+00]),
                NASA([1035.74, 5000.00],
                     [ 2.79181672E+00,  1.15828292E-02, -4.51554439E-06,
                       8.21212591E-10, -5.67068102E-14, -2.57211561E+04,
                       9.41076413E+00])),
        transport=gas_transport(geom='nonlinear',
                                diam=3.626,
                                well_depth=481.802,
                                rot_relax=1.0))

species(name='HCO(15)',
        atoms='C:1 H:1 O:1',
        thermo=(NASA([100.00, 1112.10],
                     [ 4.05936503E+00, -1.73847536E-03,  9.14984630E-06,
                      -8.01135861E-09,  2.25738966E-12,  3.84377613E+03,
                       3.32449358E+00]),
                NASA([1112.10, 5000.00],
                     [ 3.05135573E+00,  4.11707437E-03, -1.75586993E-06,
                       3.29304115E-10, -2.29175086E-14,  3.93008195E+03,
                       7.67467765E+00])),
        transport=gas_transport(geom='nonlinear',
                                diam=3.59,
                                well_depth=498.002))

species(name='CH3CHO(16)',
        atoms='C:2 H:4 O:1',
        thermo=(NASA([100.00, 1028.80],
                     [ 3.57992903E+00,  5.18977499E-03,  2.26899578E-05,
                      -2.73745313E-08,  9.28490859E-12, -2.13697376E+04,
                       8.96969754E+00]),
                NASA([1028.80, 5000.00],
                     [ 4.08561570E+00,  1.39061587E-02, -5.59372414E-06,
                       1.04609791E-09, -7.38742862E-14, -2.20391245E+04,
                       3.76814604E+00])),
        transport=gas_transport(geom='nonlinear',
                                diam=3.97,
                                well_depth=436.001,
                                rot_relax=2.0))

species(name='OH(17)',
        atoms='H:1 O:1',
        thermo=(NASA([100.00, 1145.75],
                     [ 3.51456804E+00,  2.92773617E-05, -5.32163358E-07,
                       1.01949027E-09, -3.85945173E-13,  3.41425420E+03,
                       2.10434883E+00]),
                NASA([1145.75, 5000.00],
                     [ 3.07193980E+00,  6.04015701E-04, -1.39782948E-08,
                      -2.13446092E-11,  2.48065653E-15,  3.57938677E+03,
                       4.57800011E+00])),
        transport=gas_transport(geom='linear',
                                diam=2.75,
                                well_depth=80.0))

species(name='C2H4(18)',
        atoms='C:2 H:4',
        thermo=(NASA([100.00, 979.36],
                     [ 3.97469439E+00, -4.75818088E-03,  4.16774339E-05,
                      -4.51379960E-08,  1.54219283E-11,  4.91540839E+03,
                       3.62438571E+00]),
                NASA([979.36, 5000.00],
                     [ 3.55668748E+00,  1.10626072E-02, -4.17011024E-06,
                       7.85567690E-10, -5.70044971E-14,  4.32043091E+03,
                       2.17673704E+00])),
        transport=gas_transport(geom='nonlinear',
                                diam=3.971,
                                well_depth=280.801,
                                rot_relax=1.5))

species(name='CH3OO(20)',
        atoms='C:1 H:3 O:2',
        thermo=(NASA([100.00, 1031.35],
                     [ 3.58600856E+00,  6.15348627E-03,  1.33269296E-05,
                      -1.76581529E-08,  6.13210966E-12,  2.48233563E+02,
                       9.74096021E+00]),
                NASA([1031.35, 5000.00],
                     [ 4.35022275E+00,  1.07183276E-02, -4.26215085E-06,
                       7.89578351E-10, -5.53846339E-14, -3.09810114E+02,
                       4.08928264E+00])),
        transport=gas_transport(geom='nonlinear',
                                diam=3.69,
                                well_depth=417.0,
                                dipole=1.7,
                                rot_relax=2.0))

species(name='C2H4(52)',
        atoms='C:2 H:4',
        thermo=(NASA([100.00, 846.10],
                     [ 3.36868136E+00,  1.64233773E-02, -2.16508740E-05,
                       2.18235476E-08, -8.70219794E-12,  4.28682842E+04,
                       2.18539677E+01]),
                NASA([846.10, 5000.00],
                     [ 2.62346926E+00,  1.38428778E-02, -6.25538899E-06,
                       1.16702924E-09, -7.95354929E-14,  4.32128596E+04,
                       2.66156956E+01])),
        transport=gas_transport(geom='nonlinear',
                                diam=4.443,
                                well_depth=110.7))

species(name='X(1)',
        atoms='X:1',
        thermo=(NASA([100.00, 1554.83],
                     [ 7.10115128E-03, -4.25595874E-05,  8.98470419E-08,
                      -7.80135147E-11,  2.32448029E-14, -8.76089587E-01,
                      -3.11202094E-02]),
                NASA([1554.83, 5000.00],
                     [ 1.60307222E-01, -2.52245900E-04,  1.14186593E-07,
                      -1.21483036E-11,  3.85877475E-16, -7.08139224E+01,
                      -9.09570138E-01])))

species(name='HX(21)',
        atoms='H:1 X:1',
        thermo=(NASA([100.00, 952.91],
                     [-3.80966002E-01,  5.47229382E-03,  2.60910310E-06,
                      -9.64958626E-09,  4.63945257E-12, -1.16013508E+03,
                       1.01725745E+00]),
                NASA([952.91, 5000.00],
                     [ 2.80339839E+00, -5.41050188E-04,  4.99509826E-07,
                      -7.54968047E-11,  3.06776036E-15, -2.10088528E+03,
                      -1.59436891E+01])))

species(name='CO2X(22)',
        atoms='C:1 O:2 X:1',
        thermo=(NASA([100.00, 953.57],
                     [ 3.09272239E+00,  5.29238242E-03,  8.99595679E-06,
                      -1.67149496E-08,  7.04999678E-12, -5.24627124E+04,
                      -4.06908232E+00]),
                NASA([953.57, 5000.00],
                     [ 5.99792134E+00,  2.27504421E-03, -6.81204619E-07,
                       1.34459081E-10, -1.11531920E-14, -5.34336560E+04,
                      -2.01327610E+01])))

species(name='COX(23)',
        atoms='C:1 O:1 X:1',
        thermo=(NASA([100.00, 891.33],
                     [-1.38215450E+00,  3.75307090E-02, -8.29764914E-05,
                       8.09710767E-08, -2.85475175E-11, -3.59681659E+04,
                       4.35452365E+00]),
                NASA([891.33, 5000.00],
                     [ 1.38094041E+00,  8.05713036E-03, -4.64305420E-06,
                       8.91162171E-10, -5.90041183E-14, -3.57825057E+04,
                      -4.85336911E+00])))

species(name='CH4X(24)',
        atoms='C:1 H:4 X:1',
        thermo=(NASA([100.00, 886.28],
                     [-1.38691423E+00,  4.00455588E-02, -8.37936562E-05,
                       8.75678895E-08, -3.27889103E-11, -1.09112168E+04,
                       1.78812450E+01]),
                NASA([886.28, 5000.00],
                     [-2.16837917E+00,  1.99492446E-02, -9.80003256E-06,
                       1.83534163E-09, -1.22519871E-13, -9.84489552E+03,
                       2.67912480E+01])))

species(name='OX(25)',
        atoms='O:1 X:1',
        thermo=(NASA([100.00, 888.26],
                     [-7.59013115E-01,  1.89868504E-02, -3.82473769E-05,
                       3.43558429E-08, -1.13974388E-11, -3.07465947E+04,
                       1.76017413E+00]),
                NASA([888.26, 5000.00],
                     [ 1.89893631E+00,  2.03295404E-03, -1.19976562E-06,
                       2.32680628E-10, -1.53508256E-14, -3.10221408E+04,
                      -9.64104147E+00])))

species(name='CH2X(26)',
        atoms='C:1 H:2 X:1',
        thermo=(NASA([100.00, 1199.83],
                     [-1.02006579E+00,  2.03778537E-02, -2.17291038E-05,
                       1.15868509E-08, -2.38469874E-12, -1.80270159E+03,
                       2.99160401E+00]),
                NASA([1199.83, 5000.00],
                     [ 3.89285579E+00,  3.99892109E-03, -1.25227839E-06,
                       2.09081114E-10, -1.39642281E-14, -2.98162083E+03,
                      -2.16053761E+01])))

species(name='CH3X(27)',
        atoms='C:1 H:3 X:1',
        thermo=(NASA([100.00, 848.29],
                     [-1.21090948E+00,  2.92391268E-02, -4.49013400E-05,
                       3.86013257E-08, -1.30362737E-11, -6.84550426E+03,
                       6.80941342E+00]),
                NASA([848.29, 5000.00],
                     [ 1.62291819E+00,  1.12987099E-02, -5.08315892E-06,
                       9.46831114E-10, -6.42883447E-14, -7.16157304E+03,
                      -5.42506309E+00])))

species(name='CHX(28)',
        atoms='C:1 H:1 X:1',
        thermo=(NASA([100.00, 1596.80],
                     [-9.66377707E-01,  1.63179240E-02, -1.75392895E-05,
                       8.64101496E-09, -1.55503094E-12, -5.53025669E+03,
                       2.54983298E+00]),
                NASA([1596.80, 5000.00],
                     [ 4.21489748E+00,  2.18262918E-04,  5.15722639E-07,
                      -1.20813630E-10,  8.35429220E-15, -6.78711721E+03,
                      -2.36259577E+01])))

species(name='CX(29)',
        atoms='C:1 X:1',
        thermo=(NASA([100.00, 1401.13],
                     [-6.04856936E-01,  1.10908323E-02, -1.34369583E-05,
                       7.18238106E-09, -1.40685009E-12,  3.34366689E+03,
                       1.48480227E+00]),
                NASA([1401.13, 5000.00],
                     [ 3.08076010E+00, -6.87464599E-04,  5.17589072E-07,
                      -9.73020894E-11,  6.24242994E-15,  2.43419215E+03,
                      -1.70991375E+01])))

species(name='H2X(30)',
        atoms='H:2 X:1',
        thermo=(NASA([100.00, 911.32],
                     [-1.27858273E+00,  3.68012040E-02, -8.90304309E-05,
                       8.91143026E-08, -3.14516351E-11, -1.33397617E+03,
                       1.13161111E+01]),
                NASA([911.32, 5000.00],
                     [ 6.45675146E-01,  6.69556223E-03, -3.82686395E-06,
                       7.04714580E-10, -4.41015472E-14, -7.85274238E+02,
                       7.14609165E+00])))

species(name='OHX(31)',
        atoms='H:1 O:1 X:1',
        thermo=(NASA([100.00, 914.54],
                     [-1.29522792E+00,  3.36487597E-02, -7.07760603E-05,
                       6.54375105E-08, -2.19437885E-11, -2.61008801E+04,
                       4.37657050E+00]),
                NASA([914.54, 5000.00],
                     [ 2.43541504E+00,  4.64599933E-03, -2.39987608E-06,
                       4.26351871E-10, -2.60607840E-14, -2.62527379E+04,
                      -1.03879495E+01])))

species(name='H2OX(32)',
        atoms='H:2 O:1 X:1',
        thermo=(NASA([100.00, 912.85],
                     [-1.34340039E+00,  3.66695415E-02, -7.99480251E-05,
                       7.74124581E-08, -2.68665058E-11, -3.23490305E+04,
                       1.10237632E+01]),
                NASA([912.85, 5000.00],
                     [ 1.12158639E+00,  8.16639750E-03, -4.02358324E-06,
                       7.20421471E-10, -4.51442820E-14, -3.20615224E+04,
                       3.39617196E+00])))

species(name='CHOX(33)',
        atoms='C:1 H:1 O:1 X:1',
        thermo=(NASA([100.00, 873.23],
                     [-1.43677423E+00,  3.69240780E-02, -7.17893681E-05,
                       6.73517254E-08, -2.35170851E-11, -2.84104205E+04,
                       8.27554338E+00]),
                NASA([873.23, 5000.00],
                     [ 1.83275225E+00,  1.00779631E-02, -5.28538490E-06,
                       1.01353243E-09, -6.85194774E-14, -2.85288902E+04,
                      -4.46364400E+00])))

species(name='CH2OX(56)',
        atoms='C:1 H:2 O:1 X:1',
        thermo=(NASA([100.00, 879.32],
                     [-1.46697973E+00,  4.13873024E-02, -8.87621488E-05,
                       9.10118153E-08, -3.36610498E-11, -2.03002406E+04,
                       1.57178687E+01]),
                NASA([879.32, 5000.00],
                     [-8.92903522E-01,  1.66196072E-02, -8.71593607E-06,
                       1.66816057E-09, -1.12503437E-13, -1.95446443E+04,
                       1.78926946E+01])))

species(name='CH3OX(60)',
        atoms='C:1 H:3 O:1 X:1',
        thermo=(NASA([100.00, 857.63],
                     [-1.68430314E+00,  4.28034059E-02, -7.50824214E-05,
                       7.03742068E-08, -2.50949131E-11, -2.67692012E+04,
                       7.76451793E+00]),
                NASA([857.63, 5000.00],
                     [ 1.14811430E+00,  1.71341653E-02, -8.39622759E-06,
                       1.59804147E-09, -1.08972465E-13, -2.67968443E+04,
                      -2.79399018E+00])))

species(name='CHOX(231)',
        atoms='C:1 H:1 O:1 X:1',
        thermo=(NASA([100.00, 878.72],
                     [-1.56650438E+00,  3.83564425E-02, -7.06882057E-05,
                       6.19537365E-08, -2.04286807E-11, -3.29148093E+04,
                       5.18259593E+00]),
                NASA([878.72, 5000.00],
                     [ 3.55140144E+00,  7.05339464E-03, -3.58654473E-06,
                       6.76567874E-10, -4.51235553E-14, -3.35051630E+04,
                      -1.70879098E+01])))

species(name='C2H3X(241)',
        atoms='C:2 H:3 X:1',
        thermo=(NASA([100.00, 808.71],
                     [-1.45264608E+00,  3.42706550E-02, -4.40840565E-05,
                       3.22605342E-08, -9.67614723E-12, -1.32506142E+04,
                       5.13280791E+00]),
                NASA([808.71, 5000.00],
                     [ 2.64803682E+00,  1.39871013E-02, -6.46021188E-06,
                       1.24353494E-09, -8.72723400E-14, -1.39138353E+04,
                      -1.37797853E+01])))

#-------------------------------------------------------------------------------
# Reaction data
#-------------------------------------------------------------------------------
#  Reaction index: Chemkin #1; RMG #23
#  Library reaction: BurkeH2O2inArHe
#  Flux pairs: H2(6), H(12); H2(6), H(12);

# Reaction 1
three_body_reaction('H2(6) + M <=> H(12) + H(12) + M', [4.577000e+19, -1.4, 104.38],
                    efficiencies='Ar:0.0 CO(7):1.9 CO2(4):3.8 H2(6):2.5 H2O(5):12.0',
                    id='gas-1')
#  Reaction index: Chemkin #2; RMG #24
#  Library reaction: BurkeH2O2inArHe
#  Flux pairs: H2(6), H(12); Ar, Ar; Ar, H(12);

# Reaction 2
reaction('Ar + H2(6) <=> Ar + H(12) + H(12)', [5.840000e+18, -1.1, 104.38],
         id='gas-2')
#  Reaction index: Chemkin #3; RMG #21
#  Library reaction: BurkeH2O2inArHe
#  Flux pairs: OH(17), H2O(5); H2(6), H(12);

# Reaction 3
reaction('OH(17) + H2(6) <=> H(12) + H2O(5)', [2.160000e+08, 1.51, 3.43],
         id='gas-3')
#  Reaction index: Chemkin #4; RMG #30
#  Library reaction: BurkeH2O2inArHe
#  Flux pairs: H2O(5), H(12); H2O(5), OH(17);

# Reaction 4
three_body_reaction('H2O(5) + M <=> H(12) + OH(17) + M', [6.064000e+27, -3.322, 120.79],
                    efficiencies='CO(7):1.9 CO2(4):3.8 H2(6):3.0 H2O(5):0.0 N2:2.0 O2(3):1.5',
                    id='gas-4')
#  Reaction index: Chemkin #5; RMG #31
#  Library reaction: BurkeH2O2inArHe
#  Flux pairs: H2O(5), H2O(5); H2O(5), H(12); H2O(5), OH(17);

# Reaction 5
reaction('H2O(5) + H2O(5) <=> H(12) + OH(17) + H2O(5)', [1.006000e+26, -2.44, 120.18],
         id='gas-5')
#  Reaction index: Chemkin #6; RMG #45
#  Library reaction: BurkeH2O2inArHe
#  Flux pairs: OH(17), O2(3); OH(17), H2(6);

# Reaction 6
reaction('OH(17) + OH(17) <=> O2(3) + H2(6)', [2.000000e+11, 0.51, 50.5],
         id='gas-6')
#  Reaction index: Chemkin #7; RMG #50
#  Template reaction: R_Recombination
#  Flux pairs: CH3(10), CH4(2); H(12), CH4(2);
#  Matched reaction 57 H + CH3 <=> CH4 in R_Recombination/training
#  This reaction matched rate rule [Root_1R->H_N-2R->S_N-2CHNO->H_N-2CNO-inRing_N-2CNO->O]
#  family: R_Recombination

# Reaction 7
reaction('H(12) + CH3(10) <=> CH4(2)', [1.930000e+14, 0.0, 0.27],
         id='gas-7')
#  Reaction index: Chemkin #8; RMG #52
#  Template reaction: R_Recombination
#  Flux pairs: CH3(10), C2H6(8); CH3(10), C2H6(8);
#  Matched reaction 9 CH3 + CH3 <=> C2H6 in R_Recombination/training
#  This reaction matched rate rule [Root_N-1R->H_N-1CNOS->N_N-1COS->O_1CS->C_N-1C-inRing]
#  family: R_Recombination

# Reaction 8
reaction('CH3(10) + CH3(10) <=> C2H6(8)', [9.450000e+14, -0.538, 0.135],
         id='gas-8')
#  Reaction index: Chemkin #9; RMG #53
#  Template reaction: R_Recombination
#  Flux pairs: C2H5(13), C2H6(8); H(12), C2H6(8);
#  Matched reaction 58 H + C2H5 <=> C2H6-2 in R_Recombination/training
#  This reaction matched rate rule [Root_1R->H_N-2R->S_N-2CHNO->H_N-2CNO-inRing_Ext-2CNO-R_N-Sp-3R!H=2CCNNOO_N-2CNO->O_3R!H->C_Sp-3C-2CN]
#  family: R_Recombination

# Reaction 9
reaction('H(12) + C2H5(13) <=> C2H6(8)', [1.000000e+14, 0.0, 0.0],
         id='gas-9')
#  Reaction index: Chemkin #10; RMG #54
#  Template reaction: 1,2_Insertion_CO
#  Flux pairs: CO(7), CH2O(9); H2(6), CH2O(9);
#  Matched reaction 2 H2 + CO <=> CH2O in 1,2_Insertion_CO/training
#  This reaction matched rate rule [CO;H2]
#  family: 1,2_Insertion_CO

# Reaction 10
reaction('H2(6) + CO(7) <=> CH2O(9)', [2.890000e+09, 1.16, 82.1],
         id='gas-10')
#  Reaction index: Chemkin #11; RMG #55
#  Template reaction: R_Recombination
#  Flux pairs: HCO(15), CH2O(9); H(12), CH2O(9);
#  Matched reaction 63 H + CHO <=> CH2O in R_Recombination/training
#  This reaction matched rate rule [Root_1R->H_N-2R->S_N-2CHNO->H_N-2CNO-inRing_Ext-2CNO-R_Sp-3R!H=2CCNNOO_3R!H->O]
#  family: R_Recombination

# Reaction 11
reaction('H(12) + HCO(15) <=> CH2O(9)', [4.680000e+10, 0.0, -4.53],
         id='gas-11')